15

 O   -0.7944602466    0.9890673829   -0.5673330006
 C    0.1347664968    0.9865134184    0.1996832322
 C    1.3571306275    1.8288745267    0.0255775012
 C    1.5492149968    3.0931445599    0.9496051213
 C    1.8625285920    3.9451258762   -0.3206290821
 C    1.7186946057    2.6898405800   -1.2014342193
 O    2.9901582997    1.9655530328   -1.3288646824
 C    2.7073195655    1.1542514775   -0.2587494385
 O    3.3667960882    0.2798599733    0.1993928098
 H    0.1366708651    0.3543957220    1.1141896995
 H    0.6230813107    3.3839595622    1.4485127102
 H    2.3387564393    3.0016040675    1.6965590635
 H    1.0994645301    4.6982936826   -0.5264979114
 H    2.8480927534    4.4106284227   -0.3648592026
 H    1.1730163158    2.7034521354   -2.1412501309