20

 C   -0.5904334471    1.5526333591   -0.1865619136
 C   -0.2606212516    0.0720488336   -0.2525257955
 O   -1.4298682596   -0.6562181090    0.1161863912
 C   -1.2921125748   -2.0719848831    0.1200101616
 C   -2.5176823183   -2.5829660481    0.8802954204
 O   -3.7250254014   -2.0631498828    0.3320883623
 C   -1.1336443537   -2.6060625318   -1.3231090650
 N   -2.2917203885   -2.7812446072   -2.0072174924
 O   -0.0281465300   -2.8088879013   -1.7948485945
 H    0.2904821889    2.1461736834   -0.4480370504
 H   -1.3933618702    1.8015333607   -0.8866582694
 H   -0.9118809199    1.8343826329    0.8203952901
 H    0.0678813190   -0.2168378146   -1.2585201384
 H    0.5570136303   -0.1798239976    0.4404489956
 H   -0.3751758509   -2.3703892820    0.6472254560
 H   -2.5806673643   -3.6732532709    0.8243590998
 H   -2.4203247211   -2.2946019067    1.9359798733
 H   -3.5884017404   -1.1074702687    0.2837430635
 H   -3.1798627119   -2.5901362565   -1.5645064937
 H   -2.2413798545   -3.0900759593   -2.9642234511