22

 C   -0.1673629238    1.5454815281    0.3526107794
 C   -0.0958665707    0.0286489841    0.1478199734
 C    0.9170899619   -0.6277496048    1.0661262894
 O    0.5265150250   -0.5122969757    2.4794498050
 C    0.5013793654   -1.8909912093    2.6250935026
 N    0.1891146514   -2.6004517210    3.6065710502
 C   -0.2250937186   -1.9560969495    4.8454046671
 C    0.9571655871   -2.1777592106    1.2091109401
 C    0.0689921622   -3.0703091182    0.3506861488
 H    0.7959422127    2.0207028281    0.1370870912
 H   -0.9174060414    1.9960498243   -0.3036660574
 H   -0.4332208318    1.7803359515    1.3870811390
 H   -1.0826982431   -0.4154139512    0.3184744324
 H    0.1811869638   -0.2015720702   -0.8891551402
 H    1.9052210573   -0.1725427718    0.9330679195
 H   -0.3036858099   -0.8645342507    4.7788543662
 H   -1.1954931045   -2.3612955920    5.1523919826
 H    0.4891715592   -2.2062578417    5.6382404145
 H    1.9850423537   -2.5534752173    1.1936536196
 H   -0.9718554614   -2.7368161864    0.3532243283
 H    0.4199724798   -3.0977515037   -0.6856977733
 H    0.0889922956   -4.0904842220    0.7437386516