15

 N    0.1762022963    1.3898381666    0.4084464375
 C   -0.0616623046    0.0011321221    0.0331080997
 C   -1.5092713073   -0.4009832844   -0.1270005684
 C   -2.2773021346    0.1493087367   -1.3199411156
 C   -1.5756770931   -1.1708900351   -1.4156827874
 O   -0.3096566197   -1.1423415892   -2.0566762300
 C    0.5738700367   -0.4110680009   -1.3160937809
 O    1.6682020941   -0.1292207092   -1.7083712524
 H    1.1672929706    1.5874864382    0.2853468345
 H   -0.3132266470    2.0028054934   -0.2387162105
 H    0.4033357251   -0.6337850519    0.7993914483
 H   -2.0674268204   -0.7154746944    0.7450708846
 H   -3.3587737834    0.1455756356   -1.2453588014
 H   -1.8664072132    0.9738351119   -1.8945557678
 H   -2.0903437097   -2.1118138195   -1.5564500802