14

 O   -0.0251138892    0.0254424436   -0.0263621171
 C   -0.0694487022    1.2218492786    0.0026620055
 C   -1.2452486799    2.1817495723    0.0614521205
 C   -0.7903494543    3.2467342503   -0.9931164606
 C    0.3403847939    3.5533996975    0.0464177555
 C   -0.7258137184    3.1954677682    1.1365222273
 C    1.1203973441    2.2511256739   -0.0086450842
 O    2.2975876538    2.0346908768   -0.0483460027
 H   -2.2436473987    1.7521360690    0.0813910365
 H   -0.5039025362    2.9046657037   -1.9908528036
 H   -1.5036837386    4.0705671744   -1.0648873068
 H    0.9093891244    4.4796682739    0.0514997630
 H   -1.4322960312    4.0138553938    1.2908647211
 H   -0.3800076674    2.8062461340    2.0974934856