19

 C   -0.1907767699    1.5618508110   -0.1055615296
 C   -0.0298973349    0.0435890466   -0.0827302222
 C    0.8754245068   -0.6961534683   -1.1086758279
 C    2.0582971011   -0.1242616400   -0.2931777273
 N    1.0882451855   -0.5639281008    0.8217080251
 C    0.9213346348   -1.8252001692   -0.0601485813
 C   -1.4197303284   -0.5369960524    0.2024619181
 N   -1.6383821995   -0.7936504833    1.5221199832
 O   -2.2587052599   -0.6702014225   -0.6676321023
 H    0.6969889599    2.0972561261   -0.4434022879
 H   -1.0135781752    1.8113221465   -0.7816288848
 H   -0.4528573924    1.9270585537    0.8926911347
 H    0.7498701086   -0.7671890900   -2.1926110066
 H    2.9872705440   -0.6995820731   -0.2924086439
 H    2.2717834644    0.9429537661   -0.3147854557
 H    0.0158011964   -2.3996462581    0.1383890310
 H    1.8038359215   -2.4689593754   -0.0451422165
 H   -0.8639098716   -0.7888167796    2.1672432268
 H   -2.5193463310   -1.1956606171    1.7986399872