19

 C    0.0310265652    1.4819748460    0.2986226790
 O    1.4381400439    1.5302201974   -0.1364169133
 C    1.1647682908    0.3576476686   -0.9059497874
 C   -0.0229544098   -0.0271334334   -0.0749969436
 C   -0.7721377090   -0.9195586972   -1.0847761460
 C    0.3779474703   -1.0384732832   -2.1311387320
 C    0.8175208142    0.4114833960   -2.4401037020
 C    2.2499795106   -0.0707659412   -2.7696390500
 C    1.8584196051   -0.8787008581   -1.5086509462
 H   -0.0650939581    1.7476662627    1.3537966477
 H   -0.5890942261    2.1415504936   -0.3205213450
 H    0.2885370058   -0.6015196175    0.8025846622
 H   -1.0939711647   -1.8709506450   -0.6533181246
 H   -1.6455296838   -0.4519931022   -1.5523285004
 H    0.2740707091   -1.7419328771   -2.9584736459
 H    0.2222138105    1.1653403518   -2.9581073697
 H    2.3695306861   -0.6326405221   -3.7006808452
 H    3.0579831626    0.6535663611   -2.6443085818
 H    2.4310142073   -1.6440141303   -0.9823417356