20

 C   -0.7720103399    1.2331247518   -0.0459774199
 C    0.1856326446    0.0446205964    0.0083884282
 C    1.2011045227   -0.0066366723   -1.1856985838
 C    2.3808892470   -0.6351443155   -0.5198289326
 C    2.3169992039   -0.6575830503    0.8485158799
 C    1.0353302047   -0.0329042623    1.3236311861
 C    3.5337255779   -1.2147946844    1.3300993260
 C    4.2948175023   -1.5131915526    0.2183922121
 N    3.5871022732   -1.1480893415   -0.9108206941
 H   -0.2236593333    2.1812888499   -0.0001603902
 H   -1.3607849081    1.2329386069   -0.9699607891
 H   -1.4739282219    1.2149478137    0.7947529889
 H   -0.4026660016   -0.8793726423   -0.0431231764
 H    0.7949769494   -0.5699133107   -2.0346830351
 H    1.4236435152    1.0052127210   -1.5573942178
 H    1.2004496749    0.9725469404    1.7381607787
 H    0.5114258832   -0.6040041063    2.0986937324
 H    3.8296235713   -1.3884951349    2.3537822820
 H    5.2699439614   -1.9660838339    0.1330331123
 H    3.9049187928   -1.2761629730   -1.8552714375