16

 O   -0.2339536128    1.4244505582   -0.1163272377
 C    0.0096142475    0.0376030447   -0.0809706286
 C   -1.2752676148   -0.7333253399    0.2303752477
 O   -2.2984239894   -0.3595827201   -0.6939855635
 C   -1.0707241780   -2.2450476926    0.2580210112
 O   -2.2364512070   -2.9093459773    0.7412427678
 C   -3.1524240046   -3.3123025313   -0.1642281264
 O   -4.1989964095   -3.7899169181    0.1481819538
 H   -1.0888861652    1.5335353071   -0.5525805010
 H    0.4268807092   -0.3252753469   -1.0399932898
 H    0.7643028068   -0.1465189437    0.6914473104
 H   -1.6556323491   -0.4131405577    1.2058961296
 H   -2.0100365805   -0.6111984856   -1.5806272852
 H   -0.8057600913   -2.6158594138   -0.7432255255
 H   -0.2603959226   -2.5126270606    0.9417545301
 H   -2.8123417588   -3.1746136524   -1.2087229029