15

 C    0.0054279552    1.3862018448    0.0694876374
 O    0.0144402280   -0.0380209453   -0.0153701692
 C    0.6100650214   -0.5790963910   -1.0968791297
 C    0.6301096635   -1.9771093010   -1.1989133694
 N    1.1990301766   -2.5800753641   -2.2362517349
 C    1.7460920051   -1.8044000545   -3.1692111275
 O    2.3310903690   -2.3952649082   -4.2345240808
 C    1.7271669592   -0.4140720657   -3.0693566294
 N    1.1558730907    0.1921558517   -2.0276987556
 H    1.0233310959    1.7867351482    0.0920017903
 H   -0.5224492931    1.8289664245   -0.7804165612
 H   -0.5134011263    1.6190924042    1.0000757994
 H    0.1790257036   -2.5947367019   -0.4285234109
 H    2.2327106910   -3.3481718858   -4.1053555476
 H    2.1774847203    0.2060895642   -3.8380324310