21

 C    0.0178257461    1.6457538031    0.0737895632
 C    0.0154638206    0.1126761163    0.0611908632
 C    0.7091958693   -0.5096621866   -1.1814092981
 C    1.4767085397   -1.7552552319   -0.6834357132
 C    0.9796011899   -3.1677840824   -1.1177073225
 O    2.2248126204   -3.4666277463   -1.7732169314
 C    2.7623550302   -2.1727876110   -1.4436953895
 C    1.5687383094   -1.5154566601    0.7987864069
 C    0.7788262961   -0.5227312469    1.2031158405
 H    1.0418576705    2.0343163605    0.0461794564
 H   -0.5190105848    2.0465751126   -0.7924673369
 H   -0.4656541587    2.0369034739    0.9753515803
 H   -1.0328492435   -0.2195116658    0.1097268950
 H    0.0100540083   -0.7414772423   -1.9899852028
 H    1.4321618503    0.2118385337   -1.5814898243
 H    0.7662405125   -3.8672836177   -0.2993282607
 H    0.1324165280   -3.1681985527   -1.8172719208
 H    2.9821567771   -1.5765847593   -2.3399703842
 H    3.6725012371   -2.2462355952   -0.8338383229
 H    2.1855817719   -2.1357606931    1.4414797972
 H    0.6542975194   -0.2008275586    2.2322464648