16

 O   -0.1078067662    1.4236223084    0.0062770326
 C    0.0149653645    0.0676081301    0.0251248210
 C    0.0673141680   -1.0046977420   -1.0091587147
 N    1.2774023091   -1.6143953696   -0.4461222901
 C    0.9150561229   -0.9724268955    0.8527970853
 C   -0.4121202331   -1.6253465590    1.2817870264
 C   -0.6926708293   -2.8022713071    2.1012167765
 O   -0.9266882658   -1.4624360863    2.5870880323
 C   -1.0648053866   -0.9916907312    0.0803724336
 H    0.6664120153    1.7954392397   -0.4332726614
 H   -0.1598449988   -0.9803376317   -2.0677703467
 H    1.2332899985   -2.6345065567   -0.3909416744
 H    1.7085469091   -0.7753295870    1.5715685255
 H   -1.5916831226   -3.3904660307    1.9218511349
 H    0.1203168148   -3.3363592398    2.5923761458
 H   -2.1124768498   -0.9034093416   -0.1727444166