18

 C    0.0178791960    1.4995582170    0.0521338957
 C   -0.0443439815   -0.0251941651   -0.0680709623
 C    0.7667871912   -0.5414039825   -1.2462796051
 O    0.6486122838   -1.9655562466   -1.2765384239
 C    1.3123463986   -2.5918525246   -2.2667891008
 N    1.2710185432   -3.8437515788   -2.3795731968
 C    2.0127038209   -4.4371323700   -3.4712872374
 H    1.0464591387    1.8485040729    0.1954788090
 H   -0.3764322736    1.9886335389   -0.8454241286
 H   -0.5716043605    1.8474215445    0.9047762492
 H    0.3317649381   -0.4965721382    0.8466877754
 H   -1.0815882783   -0.3573722881   -0.1873143819
 H    0.3942816693   -0.1145542243   -2.1887139190
 H    1.8235112871   -0.2553433494   -1.1430859610
 H    1.8717312554   -1.9201316498   -2.9389402668
 H    1.3312725027   -5.0086066329   -4.1121252133
 H    2.5472983637   -3.7067518778   -4.1017109244
 H    2.7461302553   -5.1487753552   -3.0747343981