17

 C   -0.0194376632    1.5872078388    0.0901847209
 C    1.5273004744    1.3032020416   -0.0195032859
 O    1.8414852524    0.6585659762    1.2221348006
 C    1.0155320435   -0.4686049170    1.0493394525
 C    1.4732849365   -1.2940750568   -0.2063781331
 C    0.1724433241   -2.0766965137   -0.4885159159
 C   -0.8370204431   -1.2015054588   -0.3304479877
 C   -0.0832724390    0.0588793988    0.0069643552
 C    1.1892934027    0.0552704784   -0.9130932693
 H   -0.3635338671    2.1045287672    0.9892867143
 H   -0.4059065731    2.0702544805   -0.8109547193
 H    2.2577487562    2.0719373146   -0.2650736777
 H    0.7543197736   -0.9497106233    1.9916200787
 H    2.4206688004   -1.8336153184   -0.2490526824
 H    0.1213506603   -3.1349655943   -0.7028971071
 H   -1.9031658630   -1.3637780123   -0.3886650719
 H    1.0954431043    0.1652268085   -1.9928558617