19

 C    0.0537866575    1.4867475526    0.0522509781
 C    0.0330551607    0.0312431951    0.0363247753
 C    0.0271471207   -1.1733285160    0.0207851323
 C    0.0307137197   -2.6151113986   -0.0034055205
 C   -0.4779960727   -3.3617887117    1.2430117744
 C   -1.3179030071   -3.3712854973    0.0086546601
 C   -2.6259341080   -2.6219458405   -0.0653976030
 C    1.1095792585   -3.2257593434   -0.7399325615
 C    2.0005518264   -3.7509467510   -1.3535354124
 H    1.0332111539    1.8676236610   -0.2577374093
 H   -0.6950760464    1.9077360331   -0.6279445914
 H   -0.1498729041    1.8788721076    1.0549897928
 H    0.0630758548   -4.2575968366    1.5235361848
 H   -0.7907593192   -2.7317931437    2.0683301274
 H   -1.2817352239   -4.2890593225   -0.5704720388
 H   -2.5691527770   -1.6727858949    0.4731680275
 H   -2.8963354117   -2.4019172094   -1.1031984521
 H   -3.4322880427   -3.2187391771    0.3748145137
 H    2.7914947606   -4.2037862167   -1.8977318075