20

 C   -0.0644427649    1.5573884633    0.1645682244
 C   -0.0040385449    0.0400429430    0.0142462552
 O    0.5977203069   -0.5491193130    1.1777257637
 C    1.9389174233   -0.6441333287    1.2006926470
 N    2.5268503030   -1.0938098802    2.2235473458
 C   -1.3944185053   -0.5679344363   -0.1416484940
 C   -1.5526308709   -2.0818781844    0.1209000615
 C   -2.3839168169   -1.6331606113    1.3391088096
 O   -2.2596613489   -0.2410339336    0.9646836637
 H    0.9363202800    1.9762215214    0.3027764915
 H   -0.5070868092    2.0135193048   -0.7265635517
 H   -0.6786333127    1.8108483004    1.0314168028
 H    0.5862536820   -0.2378762944   -0.8726219876
 H    2.4181258792   -0.3133958032    0.2676590544
 H    3.5317730635   -1.1143503258    2.0633557471
 H   -1.8135486507   -0.2087745643   -1.0920819364
 H   -2.1129592748   -2.6156823388   -0.6476422608
 H   -0.6314484018   -2.6166758785    0.3492937398
 H   -3.4314386394   -1.9542073375    1.3555477893
 H   -1.9245662176   -1.8295657630    2.3135658449