21

 C   -0.0391649277    1.5634891408   -0.0073840260
 C    0.0118428413    0.0532110447   -0.0168278573
 C   -0.7411589095   -0.6902619371   -1.1275101123
 C   -1.5035155051   -1.8050852339   -0.3764558036
 O   -0.8579899273   -1.9730624765    0.8949998571
 C   -0.1833096114   -0.7767360275    1.2183754694
 C    1.2020215222   -0.6597806759    0.6338891250
 C    1.8739910572   -1.9060673219    0.0836408339
 O    1.9732724095   -2.9333547854    1.0564457847
 H    0.4898300363    1.9835631089   -0.8706863668
 H   -1.0733579079    1.9260129290   -0.0416739567
 H    0.4284711360    1.9718131366    0.8939293800
 H   -1.4359534236   -0.0107051016   -1.6295869429
 H   -0.0757090088   -1.0944939151   -1.8959108718
 H   -2.5531310076   -1.5206286991   -0.2161007380
 H   -1.4847976821   -2.7709999888   -0.8891129187
 H   -0.4402133946   -0.3674990693    2.1910810226
 H    1.8667402854    0.0049712151    1.1807127713
 H    1.3545747219   -2.2693672835   -0.8140209625
 H    2.8988341218   -1.6709136668   -0.2206122089
 H    1.0630513042   -3.1396752327    1.3030469914