21

 C    0.1704967018    1.4519165325   -0.2867215525
 C   -0.0542177561   -0.0536803817   -0.0926386128
 O    0.6866806889   -0.7475090872   -1.1245840454
 C    1.6603609050   -1.6161192408   -0.5585276752
 C    1.5258079614   -1.4438036551    0.9281566304
 C    0.5686406450   -0.5638926036    1.1897809994
 C   -1.5137825352   -0.4913547012   -0.1906325047
 C   -2.6540787103    0.2681239359    0.4433175747
 C   -2.5398400704    0.1887513951   -1.0587168744
 H    1.2320873344    1.6784677976   -0.1612986877
 H   -0.1240095454    1.7550432680   -1.2946615445
 H   -0.3924542577    2.0471239326    0.4386144573
 H    1.4747078669   -2.6543117887   -0.8780760596
 H    2.6644589551   -1.3452145203   -0.9226984883
 H    2.1385046278   -1.9754463516    1.6456161422
 H    0.2323639967   -0.2317743666    2.1637718503
 H   -1.5968293707   -1.5732810894   -0.1383971330
 H   -3.4320421832   -0.3026966075    0.9384036643
 H   -2.4463329873    1.2235803380    0.9125770736
 H   -2.2571337155    1.0901050331   -1.5898961931
 H   -3.2385720311   -0.4393441993   -1.5999753310