19

 O    0.4964721734    0.8318463808   -0.6819747469
 C    0.1578242547   -0.2508577644    0.1429467418
 C   -0.0179400344   -0.0455862243    1.6753065604
 C   -1.2427748650   -1.0077072487    1.6341349484
 C   -1.2785994241   -0.8108990553    0.1139264392
 C   -2.3890888013   -0.2144593409   -0.6726978191
 C   -1.9614746575   -1.6581132665   -0.9419822689
 C   -1.2410654570   -1.9427697340   -2.2031183914
 O   -1.3142318150   -2.9809747563   -2.8151708009
 H   -0.1073867327    1.5560237383   -0.4828874145
 H    0.8975419916   -1.0282424228   -0.0721552319
 H    0.8224138842   -0.3116918729    2.3188870253
 H   -0.3209974520    0.9830117376    1.8959004494
 H   -0.9788238671   -2.0304909829    1.9170284695
 H   -2.1316519251   -0.7068397394    2.1929872006
 H   -3.3561818424   -0.0698537544   -0.2030797175
 H   -2.1371322122    0.5165873394   -1.4368125302
 H   -2.6166649727   -2.4536251158   -0.6012366525
 H   -0.6022670353   -1.1030542276   -2.5609589708