18

 C   -0.0654602623   -1.2481689193   -0.0386112161
 C   -0.0576046471   -0.0457917968   -0.0364387715
 C   -0.0118337950    1.4113984458   -0.0353032795
 C    1.4263311678    1.9786846669    0.0215011178
 C    1.4656833488    3.5299875941   -0.0289302389
 C    2.6151659788    3.9547301148    0.9202691973
 C    2.8049979757    2.7322613040    1.7876120750
 C    2.1699743166    1.6678381084    1.3017256893
 H   -0.0865437140   -2.3096041053   -0.0411696729
 H   -0.5119918663    1.7916248594   -0.9356052324
 H   -0.5812535319    1.7974354990    0.8204338748
 H    1.9737891279    1.5506088386   -0.8306445991
 H    1.5858068959    3.9143296219   -1.0451365206
 H    0.5163874248    3.9225417995    0.3538485093
 H    3.5374268869    4.1830766162    0.3673903231
 H    2.3740234499    4.8563931753    1.4946257628
 H    3.4266864275    2.7377934490    2.6765007626
 H    2.1865022962    0.6699767784    1.7251658293