16

 N   -0.3042432675    1.1363964269   -0.4449846133
 C   -0.1120977991   -0.1887036368   -0.2029834416
 O    0.6811183500   -0.8703880509   -0.8243851651
 C   -0.9458059713   -0.7785221576    0.9512500759
 N   -0.9663883936   -2.2277491466    0.9657453684
 C   -1.7986665695   -2.8212582705   -0.0754612943
 C   -1.9864220206   -4.3089109072    0.1736066372
 O   -2.2698844864   -5.1090969720   -0.6783556782
 H    0.2621923793    1.5891786895   -1.1438231777
 H   -0.9518360390    1.6920290223    0.0858392854
 H   -0.5066186720   -0.4124199268    1.8896971431
 H   -1.9728591871   -0.3957404225    0.9166471777
 H   -0.0080737454   -2.5369809742    0.8211437778
 H   -2.8026642999   -2.3742120416   -0.0119300334
 H   -1.4418623114   -2.6712978858   -1.1044851129
 H   -1.8541422565   -4.5998687861    1.2407074514