18

 C   -0.0241517546    1.6165654970    0.0340229210
 C    0.1230474825    0.1001882663   -0.0647282273
 C    0.4861621429   -0.7562952332   -1.2377401958
 C    1.7837725559   -0.3611697264   -1.9569519260
 C    2.5524782579    0.7695856960   -1.3850119651
 N    2.6197425820   -0.5446287619   -0.7211212156
 C    1.3316627553   -0.8352932862    0.0461114295
 C    1.4011879152   -1.8350196274    1.0535223419
 C    1.4582632073   -2.6766208474    1.9125323809
 H    0.1229812052    2.1165345186   -0.9255453763
 H   -1.0387150311    1.8544620571    0.3678463145
 H    0.6651163420    2.0538604230    0.7632226963
 H   -0.6676727739   -0.4034911927    0.4891749226
 H   -0.1701073377   -1.5189840662   -1.6369346256
 H    2.0794141075   -0.8406472947   -2.8841874586
 H    3.4892131492    1.0026160202   -1.8857110588
 H    2.0922026656    1.6139175783   -0.8977544428
 H    1.5131626188   -3.4225686905    2.6658414654