18

 C   -0.0448295696    1.4006516556    0.0549518093
 N    0.0040471906   -0.0530581282    0.0354553645
 C    0.5573057075   -0.6107775637   -0.9571367632
 N    1.1555460151   -0.0602354069   -2.0787236684
 C    1.6725980242   -1.0246222597   -2.9612348030
 O    2.2771811665   -0.8012701345   -3.9822934715
 N    1.3319925206   -2.2331273885   -2.4122262183
 C    0.6887638720   -2.1278809857   -1.1100094186
 C    1.4812559591   -2.7616549430    0.0357555226
 H    0.9596861482    1.8511999684    0.0663632805
 H   -0.5833884104    1.8120102611   -0.8127672023
 H   -0.5655700956    1.7350686512    0.9550610687
 H    1.2604371983    0.9210650048   -2.2701988064
 H    1.7189170210   -3.0823784203   -2.7852167488
 H   -0.3177057140   -2.5641035523   -1.1374984157
 H    2.4947681111   -2.3519656507    0.0787985834
 H    0.9765759516   -2.5485411655    0.9809005417
 H    1.5483525338   -3.8468570120   -0.0908898544