17

 N   -0.3518455295    1.3776778834   -0.1121924997
 C   -0.0523600340   -0.0276304239    0.0565576598
 C   -0.3585648464   -0.7444017002    1.3465495616
 C   -1.5410090674   -0.0938735879    2.0642663367
 N   -2.3206254538   -0.0848828631    0.7509477145
 H   -3.2734533987   -0.4359155388    0.7843724701
 H   -2.2165586318    0.8529219880    0.2986000499
 C   -1.2367334041   -0.9511797702    0.1305341330
 C    1.0962660324   -0.6344842042   -0.8368865190
 O    1.5536393140    0.1927499040   -1.6402264904
 O    1.3064811309   -1.8371775930   -0.6186364719
 H    0.1714171318    1.9235667640    0.5685944814
 H    0.1020325656    1.5827519930   -1.0118321918
 H    0.3357482956   -1.4507650223    1.7760395244
 H   -2.0493056794   -0.7551351273    2.7674140992
 H   -1.4373599535    0.9093872740    2.4848086407
 H   -1.4838313616   -1.7874810954   -0.5054939183