17

 O    0.0386070788   -0.0844587495   -0.0360050768
 C    0.0346564769    1.1329669102   -0.0306224011
 N   -1.1063062093    1.8766025035    0.1889677637
 C   -1.2048505761    3.3032936714    0.0767322088
 C   -0.5489346179    4.2696258991    1.0445280696
 C    0.7016474037    3.6242261817    1.6399539698
 C    1.1907918868    3.2869844100    0.1762973662
 N    1.1695381655    1.9005516846   -0.2426047674
 C   -0.0089756198    4.0641640480   -0.3803064721
 H   -1.9226640007    1.3290492749    0.4045990439
 H   -2.1543420454    3.6384487771   -0.3287375553
 H   -1.0821657290    5.1233266457    1.4448378262
 H    1.3581128782    4.3470282435    2.1299608289
 H    0.5478983340    2.7685614481    2.3040937325
 H    2.1641963406    3.7160590279   -0.0602616581
 H    2.0175445929    1.3575986547   -0.1898489633
 H   -0.0053849290    4.7093074991   -1.2495860455