17

 O   -0.0652988799   -0.0333043764   -0.4434555442
 C   -0.0317452824    1.1465840394   -0.1656263328
 C    1.2640916001    1.8937346445    0.1041454794
 C    2.4815208437    0.9841944600    0.0746207131
 C    2.9253812257    0.4323557498   -1.2978189258
 O    4.2191499673    1.0644692614   -1.1844580566
 C    3.8700613562    1.6635167870    0.0772613948
 C   -1.2439897040    1.9440105536   -0.0766797103
 C   -2.2331197328    2.6254260194    0.0023979452
 H    1.3477143856    2.6948465760   -0.6445798460
 H    1.1676939163    2.4100800651    1.0690601626
 H    2.3782578848    0.2019577648    0.8287151200
 H    3.0010457236   -0.6571634126   -1.3756299614
 H    2.3585496517    0.8095406941   -2.1592783720
 H    3.8540573498    2.7613363433    0.0217252945
 H    4.5525949398    1.3621047156    0.8812435456
 H   -3.1185012656    3.2104988150    0.0672203841