19

 O   -0.1214889236    1.4099834402    0.0111180394
 C   -0.0486345809   -0.0086102200    0.0044723585
 C   -1.4519022551   -0.5403812930    0.0118815199
 C   -2.5586553427   -0.2748453518   -1.0543359040
 C   -3.2081601375   -1.2098111102    0.0210910862
 C   -1.8941904385   -2.0353503824    0.0091617073
 C   -2.5440550116   -0.2831573198    1.0950113227
 C   -4.6060960644   -1.7171317420    0.0291734778
 O   -4.9102771968   -2.8846576900    0.0304176357
 H    0.7749992255    1.7577950860    0.0068312013
 H    0.4786472431   -0.3817818183   -0.8889599725
 H    0.4909699691   -0.3894948681    0.8872213821
 H   -2.9387607363    0.7466802337   -1.1175108702
 H   -2.4078953955   -0.7176649980   -2.0426541727
 H   -1.6894849142   -2.6084815768   -0.8984324695
 H   -1.6772987621   -2.6153512769    0.9095183899
 H   -2.3801008297   -0.7337161383    2.0777048417
 H   -2.9232611673    0.7378062427    1.1712294452
 H   -5.3855359416   -0.9190569570    0.0344200012