15

 N   -0.0530652965   -1.1411683611   -0.0662297221
 C   -0.0076112440    0.0093536821    0.0334101803
 C    0.0370311506    1.4617416185    0.0747702156
 C   -0.3355014605    2.0907379225    1.4399718797
 N    0.6718078458    1.4084314499    2.3165697367
 C    1.6474540750    2.3015619117    1.6487257183
 C    0.6144566417    3.3880494301    1.3216410124
 O    1.0604924478    3.5264943440   -0.0301131509
 C    1.4466308879    2.1315560121    0.0844209823
 H   -0.5329983071    1.8761580289   -0.7597053117
 H   -1.3774456088    2.0999520037    1.7506104995
 H    0.5538553821    1.7265738145    3.2773744941
 H    2.6477586807    2.4433431660    2.0513498557
 H    0.3888142618    4.3091242246    1.8571231911
 H    2.2076128937    1.8060987725   -0.6201296911