20

 C    0.5911956453    0.0348869743    1.2385033677
 C   -0.0754855899   -0.0579616259   -0.1412720411
 C   -1.4513469398   -0.7091269197   -0.1186136953
 C   -1.8362657686   -1.6271978274   -1.2848716348
 C   -1.5226486768   -2.2150761198    0.0509155097
 C   -2.6359620787    0.0524237692    0.4208406567
 C   -2.5397542183    1.5664709025    0.5119212157
 O   -3.6649113456   -0.5185299098    0.7203670215
 H    1.5824518631    0.4925635787    1.1637424797
 H    0.0018943589    0.6342503022    1.9399833453
 H    0.7106414077   -0.9591844214    1.6807558359
 H   -0.1347844653    0.9384294282   -0.5949462237
 H    0.5706960474   -0.6460733129   -0.8035414519
 H   -2.8746359046   -1.6113469794   -1.5947293072
 H   -1.1133264092   -1.7254960718   -2.0877015284
 H   -0.5795209788   -2.7358964932    0.1762745049
 H   -2.3516868578   -2.5905359591    0.6380571710
 H   -2.3271856006    1.9949314191   -0.4742336419
 H   -3.4874557405    1.9582087013    0.8822984244
 H   -1.7286219679    1.8792821246    1.1762753017