22

 C   -0.1425955892    1.5214270843    0.6932049642
 C    0.0030847354    0.0087663315    0.5425087447
 C    0.6194618432   -0.4617362635   -0.8000954985
 C    1.2840522394   -1.7912999702   -0.4512991466
 C    2.6288058333   -1.8230819683    0.1816988621
 C    3.5880623350   -0.6590815080    0.2326374521
 O    4.4706913292   -0.7522448827    1.3437391093
 N    1.4083777365   -1.9231927908    1.0215651707
 C    0.9019550597   -0.6609711779    1.6085221543
 H    0.8295578497    2.0216954297    0.6087124686
 H   -0.7983340412    1.9370380714   -0.0788509054
 H   -0.5698218279    1.7860405564    1.6663192463
 H   -0.9907562537   -0.4488693044    0.6248926893
 H   -0.1421590988   -0.5942269400   -1.5729950436
 H    1.3319819353    0.2764395776   -1.1835738040
 H    0.9368332166   -2.6793913455   -0.9739456713
 H    3.1620621954   -2.7731531532    0.1530340719
 H    4.2263179723   -0.6851344405   -0.6577978225
 H    3.0694621347    0.3087430171    0.2222877343
 H    3.9359597306   -0.9190203452    2.1268865682
 H    1.7133161203    0.0127088989    1.9147500804
 H    0.3378028142   -0.9079050866    2.5131894055