18

 C   -0.1103320507    1.4988458095   -0.0901667655
 N   -0.0165880764    0.0614209925    0.0660341198
 C   -1.2463138632   -0.6968195856    0.3700249984
 C   -0.4099683443   -1.5696220714    1.3062434468
 O   -0.5402982741   -2.6189832568    1.8520579761
 C    0.7574166217   -0.5306255854    1.2071855301
 C    2.1275058465   -1.0872014883    0.8230224463
 C    0.8075881005    0.2936222366    2.4110000933
 C    0.8267074456    0.9873260640    3.3939731528
 H    0.8880065951    1.9211645879   -0.2382118584
 H   -0.7030489159    1.7212143147   -0.9831391750
 H   -0.5735244362    2.0059800921    0.7726975189
 H   -2.0095859856   -0.1335584084    0.9344218767
 H   -1.7249756757   -1.1849671267   -0.4854253086
 H    2.0379451307   -1.7009347140   -0.0763229050
 H    2.8298902364   -0.2722436806    0.6252161471
 H    2.5261766218   -1.6966101677    1.6385969970
 H    0.8523305739    1.5903596675    4.2681328191