18

 C   -0.0105527296    1.4484979761   -0.0536746947
 C    0.0133115611   -0.0439925515   -0.0727758788
 N    0.0469031081   -0.7731722309   -1.1239128129
 C    0.0757217211   -2.1739069388   -0.6702641954
 C    1.3177781849   -2.8745033727   -1.2411689897
 O    1.3120779524   -2.8326581193   -2.6497358642
 C    0.0538260940   -2.1254041396    0.8537005305
 N    0.0942620725   -3.1258231001    1.6342405554
 N   -0.0046929086   -0.7576474400    1.1261053135
 H    0.8479719625    1.8469660705    0.4982715074
 H    0.0179283867    1.8216273877   -1.0771553936
 H   -0.9182486490    1.8171704186    0.4368468038
 H   -0.8106829450   -2.6957340337   -1.0493649424
 H    2.2190849383   -2.3995824300   -0.8201288316
 H    1.3167747605   -3.9235944015   -0.9336380514
 H    1.1287682757   -1.9144780721   -2.8859953784
 H    0.0781154592   -2.8503974739    2.6176159807
 H    0.0010246953   -0.3522890688    2.0474051315