18

 C   -0.1669246497    1.5489602852    1.0695721785
 C   -0.1324403497    0.3084455663    0.1396125748
 C    0.8629187550   -0.6568758865    0.6122482995
 C    1.6590618085   -1.4482915876    1.0443383199
 C   -1.4937780572   -0.3280278683   -0.0072086624
 C   -2.5724960779    0.0301306597   -0.7876208270
 C   -3.6344803989   -0.8698353478   -0.4931383149
 C   -3.1725878290   -1.7518449583    0.4558747767
 N   -1.8772896853   -1.4079285318    0.7470535993
 H    0.8200297591    2.0168079952    1.1268510548
 H   -0.8853563104    2.2770704836    0.6851329209
 H   -0.4740916321    1.2605535745    2.0782733279
 H    0.1765124684    0.6509049224   -0.8564870541
 H    2.3830061843   -2.1399051944    1.3986868738
 H   -2.5949156007    0.8500117168   -1.4900918789
 H   -4.6208038057   -0.8705122469   -0.9311379413
 H   -3.6455964932   -2.5926951651    0.9368499866
 H   -1.2520321855   -1.9080746673    1.3569824858