20

 C    0.3593809685    1.5458738517   -0.2041009755
 C    0.1725496062    0.0722928372    0.0487828254
 O    1.3452726853   -0.7148084821    0.2900859710
 C    0.3756171169   -0.6021133222    1.3427065095
 C    0.8209801238    0.0759506168    2.6154516622
 C    1.8421370111   -0.7776994306    3.3592556694
 O    2.1819163525   -0.1022514495    4.5702159249
 C    3.3369745302   -0.4595208289    5.1616627830
 N    3.6422885862    0.0135752741    6.2913601802
 H    1.0798911859    1.9918547146    0.4838088384
 H    0.7245378977    1.7059999724   -1.2238439928
 H   -0.5952235893    2.0736727881   -0.1044269270
 H   -0.5331921485   -0.4089391810   -0.6323608922
 H   -0.1900567021   -1.5236996195    1.5040675413
 H    1.2663819293    1.0523265691    2.4106720735
 H   -0.0479756794    0.2409329822    3.2631946871
 H    1.4262755532   -1.7673959659    3.5943819194
 H    2.7327626631   -0.9218543471    2.7348584681
 H    3.9387067039   -1.1580143915    4.5626356051
 H    4.5524883958   -0.3397155278    6.5790361888