16

 C    0.0793965105    1.4633266923   -0.0558132950
 N    0.0379655263    0.0236040267    0.1118610498
 C   -1.1794269834   -0.7383117045   -0.0455946629
 C   -0.6133257146   -2.1819891031    0.0288461689
 O    0.7834521652   -2.0552032794   -0.2293027424
 C    1.1601945522   -0.7445793954   -0.1355216770
 O    2.2921809776   -0.3687093971   -0.2530252966
 C   -2.1678834185   -0.4905051294    1.0865762086
 O   -3.3540268040   -0.3814754174    0.9367445365
 H    1.1261931511    1.7675454141   -0.0211455353
 H   -0.3513733486    1.7680085398   -1.0191887866
 H   -0.4695814357    1.9663185260    0.7460476930
 H   -1.6869111439   -0.5371653758   -0.9994550858
 H   -0.7521461614   -2.6189549521    1.0253455700
 H   -1.0598900215   -2.8424193003   -0.7153308245
 H   -1.6831052814   -0.4395798342    2.0889306293