18

 C   -0.0397571259    1.5239081626    0.0416751303
 C    0.0349290329    0.0146589522    0.0474275348
 C    0.9223751588   -0.8106244617   -0.9628768174
 C    0.7163027701   -1.9380293951    0.1076796720
 C    0.7686063660   -0.7962655236    1.1572846808
 C   -0.8023606747   -2.1650356015   -0.0595382194
 O   -1.6327035348   -1.6471534343    0.9943556506
 C   -1.2847556498   -0.7873857726   -0.1039234275
 H    0.9579432449    1.9723145389    0.0883741549
 H   -0.5288239244    1.8947499753   -0.8669631735
 H   -0.6131340636    1.8923138290    0.8996877316
 H    0.5240473740   -0.9826262272   -1.9683521089
 H    1.9529745290   -0.4487613707   -1.0214840632
 H    1.3630155827   -2.8126657219    0.1652296127
 H    1.7876088451   -0.4325954775    1.3053077341
 H    0.2609137235   -0.9446119280    2.1088003750
 H   -1.2097659680   -2.9940789588   -0.6281232116
 H   -2.1086747558   -0.4233615451   -0.7100406753