15

 C   -0.4789881632    1.3656761055    0.1233225287
 C   -0.0221578082   -0.0593593240   -0.0492203076
 N   -0.2334898154   -0.6189686490   -1.1980070399
 C    0.1634298680   -1.9055898260   -1.4974712919
 N    0.1906338512   -2.9661256996   -0.7788084993
 C   -0.0739138825   -2.9790729424    0.5895319938
 O   -0.7876664179   -3.7985991000    1.1194113214
 C    0.6845522604   -1.9731723466    1.3831484093
 C    0.6619938764   -0.6587789022    1.0952637019
 H   -1.1440743400    1.4548566625    0.9897115643
 H    0.3794888987    2.0207822078    0.3144618811
 H   -0.9962515251    1.7039636532   -0.7740586390
 H    0.4312703530   -2.0207499298   -2.5492473706
 H    1.1550293326   -2.3319853857    2.2945797878
 H    1.1045696222    0.0402661062    1.8012120802