14

 C   -0.0050041991    1.4869462845    0.0793943200
 C    0.0143097003    0.0035413924   -0.0177465544
 C   -0.0294269296   -0.7824530658   -1.1077723729
 C   -0.1065489605   -0.3732325909   -2.4630010382
 N   -0.1694252307   -0.0201889337   -3.5633545533
 C    0.0157739962   -2.2160225696   -0.6902560592
 O   -0.0024655833   -3.2066752888   -1.3541484674
 O    0.0871343906   -2.2274678078    0.6799119540
 C    0.0914638010   -0.8979566685    1.1830083775
 H    0.8964049237    1.8520461132    0.5859520191
 H   -0.0639200567    1.9501546527   -0.9071242830
 H   -0.8605156647    1.8231618165    0.6773082744
 H    1.0075211252   -0.7306391598    1.7641923962
 H   -0.7644434022   -0.7596941545    1.8562380172