13

 C   -0.0356091130    1.4254969873    0.0091368121
 C    0.0180970505   -0.0246378855    0.0092279640
 C    0.0656323361   -1.2288638362    0.0097809578
 C    0.1062220779   -2.6357849726    0.0091167067
 N    1.1489822113   -3.4202162616    0.0953053094
 C    0.5677086202   -4.6573224008    0.0423350915
 O    1.2774977670   -5.7822506485    0.0992659623
 N   -0.7386163990   -4.6743867294   -0.0685769245
 O   -1.0533426718   -3.3077331609   -0.0912624092
 H    0.9715169309    1.8543975290   -0.0022748539
 H   -0.5737461473    1.7957935118   -0.8699154470
 H   -0.5529432797    1.7963988875    0.9004949047
 H    2.2053362571   -5.5287692101    0.1787416562