18

 N   -0.0615544526    1.2506545885   -0.3897251410
 C   -0.0063418630   -0.0143316894    0.1442584767
 O    0.9938226750   -0.4713603773    0.6669531608
 C   -1.2738176764   -0.7792075243    0.0034912919
 C   -1.7706550014   -1.6164777857    1.1661414061
 C   -1.4639963313   -2.3073311399   -0.1137473166
 C   -2.6245327643   -2.1035986677   -1.0960132405
 C   -2.3630463321   -0.5571440497   -1.0331923924
 O   -3.3837615417    0.3235939384   -0.6050828468
 H    0.7136144204    1.8586936673   -0.1741602059
 H   -0.9615545880    1.6838507864   -0.5285393837
 H   -1.0282950651   -1.7257586741    1.9486873207
 H   -2.7976011569   -1.5009686360    1.5007395744
 H   -0.6692810068   -3.0356569123   -0.2051552467
 H   -2.4604120520   -2.5205087593   -2.0914705661
 H   -3.6031564279   -2.4234629611   -0.7251387480
 H   -1.9255901480   -0.2123796365   -1.9796871922
 H   -4.0309667278    0.4079672628   -1.3131268406