19

 C   -0.3348302891    1.2926750100   -0.0497305624
 N    0.3516641322    0.0293672615    0.1247504303
 C    0.6391159295   -0.6205579254   -0.9088271643
 O    1.2990192666   -1.8023412190   -0.8089471013
 C    1.5404523963   -2.5399358405   -2.0022596851
 C    2.9243858940   -3.1657453189   -1.8840233390
 C    0.4480387393   -3.6215544565   -2.1714194283
 C   -0.8687951696   -3.0559534812   -2.4511770150
 N   -1.8973476464   -2.5853257922   -2.6875168451
 H    0.2573062191    2.0967314276    0.4017618692
 H   -0.5326494782    1.5551543715   -1.1014781802
 H   -1.2921432937    1.2640267263    0.4822602320
 H    0.4112077732   -0.3139834593   -1.9404466744
 H    1.5071244434   -1.8650683509   -2.8677473089
 H    3.1707732894   -3.7371740083   -2.7835685802
 H    3.6754205590   -2.3841726544   -1.7494254146
 H    2.9693375263   -3.8346579045   -1.0194950835
 H    0.7211290915   -4.2954804642   -2.9906424814
 H    0.3981200572   -4.2178629516   -1.2542171578