21

 C    0.1535907042    1.4499590287   -0.3368971189
 C    1.3822875315    0.5911145661   -0.1268763442
 C    0.0146528714   -0.0095502744   -0.0372508415
 C   -0.6529378321   -0.6718149924    1.1600966752
 O   -1.2163834953   -1.6876120667    0.3022630290
 C   -0.6191880178   -1.1223860246   -0.8798977607
 C   -1.5234888871   -0.8002029894   -2.0915860754
 C   -0.3926075585   -1.3219469517   -3.0212454706
 C    0.2377693871   -2.0313430307   -1.7904899914
 H   -0.1194735271    2.1586825922    0.4389275288
 H   -0.0622512621    1.7910371249   -1.3446804990
 H    1.9920013555    0.3551424398   -0.9935455000
 H    1.9470659929    0.7141922733    0.7921636800
 H    0.0219429840   -1.0988382105    1.9134502295
 H   -1.4302992992   -0.0836863623    1.6652377965
 H   -2.3914865333   -1.4657200763   -2.0905819929
 H   -1.8660205039    0.2311499121   -2.2093427338
 H   -0.6884246376   -1.9509503892   -3.8627783418
 H    0.2378393025   -0.5127339297   -3.4002741965
 H    1.3230407569   -1.9980367330   -1.6641567064
 H   -0.0997072520   -3.0676993263   -1.6987912158