15

 C   -0.0435542684    1.3982036196   -0.0737625345
 O    1.2907149694    1.5399381976    0.5419323109
 C    1.3185017206    0.1904354565    0.7750054502
 N    1.9115559120   -0.4856219550    1.6503909441
 C    1.3114704670   -1.8393684446    1.6499600012
 C   -0.2241191209   -1.7421816979    1.6213084207
 O   -0.7436527041   -1.0589759727    0.4637395482
 C    0.1563648428   -0.1457593469   -0.1054182665
 H   -0.8196174758    1.7357898433    0.6167103531
 H   -0.0966952009    1.9222068339   -1.0290863970
 H    1.6714513380   -2.4375104806    0.8016271540
 H    1.6157208315   -2.3572609729    2.5636936970
 H   -0.6763405470   -2.7382928820    1.6060489981
 H   -0.5579351605   -1.2223959151    2.5299845041
 H    0.4403638364   -0.4776261533   -1.1113838934