20

 C   -0.0345724667    1.5530809281   -0.0628095640
 C    0.0357091585    0.0241698145    0.0231653095
 C    0.6755717871   -0.5369804869   -1.2456987168
 O    0.8978211033   -1.9234889384   -1.1397531704
 C    1.8718067437   -2.1862573525   -0.1527689003
 C    1.6438115294   -1.4944096374    1.1895426085
 O    2.2381488877   -1.8953212375    2.1763633889
 N    0.7823175245   -0.4284499722    1.2044795625
 C    0.4095848755    0.1285706665    2.4983775568
 H    0.9696880308    1.9889591444   -0.0788308281
 H   -0.5520866281    1.8463281492   -0.9817152074
 H   -0.5837069321    1.9861764321    0.7757535677
 H   -0.9908746057   -0.3703365495    0.0901758768
 H    0.0038120296   -0.3798752819   -2.0938475035
 H    1.6209125340   -0.0055699430   -1.4525399700
 H    1.8726080047   -3.2613696409    0.0362676219
 H    2.8792358122   -1.9067186376   -0.5046834052
 H    0.8822428289   -0.4782897077    3.2691384544
 H    0.7469456866    1.1643850625    2.6072997014
 H   -0.6800393338    0.1026607781    2.6238140175