19

 C    0.0423962898    1.5867715710   -0.1168377240
 C    0.0795755444    0.0719894907    0.0109059025
 C    1.0600994399   -0.7338794072   -0.8825526678
 C    1.2822712369   -1.7107144468    0.3118189955
 C    2.6190267720   -2.2280398205    0.5455457942
 N    3.6907506077   -2.6195111725    0.7363191750
 C    0.7174421353   -0.6018873460    1.2751347055
 C    1.7829587007    0.2091679932    2.0041437158
 H    1.0351949196    2.0286805493    0.0117852424
 H   -0.3254763897    1.8805776276   -1.1060308676
 H   -0.6234771778    2.0346249880    0.6289021163
 H   -0.9327205530   -0.3269410793   -0.1205171217
 H    0.6803627306   -1.1691905664   -1.8087767403
 H    1.9686635606   -0.1688195827   -1.1056066657
 H    0.5866246634   -2.5526248073    0.2538591603
 H   -0.0055009722   -0.9857448194    2.0001553413
 H    2.5510054638    0.5929830371    1.3252516703
 H    1.3320847126    1.0637203460    2.5181490516
 H    2.2904286853   -0.4064196546    2.7528715163