12

 O   -0.0412976987    1.3112530796    0.0098755156
 C    0.0188552764   -0.0234073887    0.0025309792
 N    1.1758564876   -0.5987963555   -0.0070514166
 C    1.2574937657   -1.9676334850   -0.0147519891
 N    2.3449621285   -2.6096356861   -0.0242428247
 O    0.0285881390   -2.7066809792   -0.0116943547
 C   -1.1393589020   -2.0610356813   -0.0016844230
 C   -1.2389612112   -0.7207441796    0.0059430167
 H    0.8765242877    1.6255804907    0.0063430159
 H    2.1668514469   -3.6122970437   -0.0285143780
 H   -1.9834121547   -2.7423220483   -0.0005103914
 H   -2.1861539253   -0.2038830829    0.0140120902