25

 C   -0.1331879291    1.5723631999   -0.0040473220
 C   -0.0183381801    0.0464930574    0.0128283289
 C    0.7072695489   -0.4716138025   -1.2343085092
 O    0.8473835428   -1.8821299826   -1.2361415971
 C    1.5715513200   -2.4146638076   -0.1246183645
 C    3.0710328439   -2.1011914672   -0.2188228799
 C    0.8909120944   -2.0019251899    1.2004109930
 C    1.6021571213   -2.5540050021    2.4393405200
 C    0.7040454692   -0.4771687427    1.2631318406
 H    0.8569824797    2.0434755065   -0.0113199811
 H   -0.6751981198    1.9239426905   -0.8887548690
 H   -0.6659160112    1.9369239436    0.8803631720
 H   -1.0293403877   -0.3844931041    0.0004843959
 H    0.1425714097   -0.2312714452   -2.1412259747
 H    1.6886065545    0.0249600765   -1.3211157124
 H    1.4559008113   -3.4992482619   -0.2391763765
 H    3.3041792185   -1.0525601029   -0.0137054056
 H    3.6358283101   -2.7111942242    0.4915828254
 H    3.4244998823   -2.3366756567   -1.2265832646
 H   -0.1127115367   -2.4476925011    1.1603018029
 H    2.5843750920   -2.0918584902    2.5833498203
 H    1.0123426222   -2.3579713686    3.3409180793
 H    1.7492989401   -3.6375604979    2.3681238494
 H    1.6813473023    0.0188777153    1.3543530254
 H    0.1422838014   -0.2091526925    2.1668671534