17

 C   -0.3574440915    1.6424249411   -0.1544211277
 C    0.1105698334    0.2080066019   -0.0019230442
 C    0.8838181981   -0.4714972856   -1.2117744254
 C    2.0390376711   -0.6259543952   -0.2306717281
 C    3.1918824038   -1.1119781739    0.3618235122
 O    4.2480455785   -1.8252620886   -0.1224905573
 C    3.0714615588   -0.6816241795    1.7125378995
 N    1.9283226245   -0.0135743234    1.9583808476
 N    1.3691751051    0.0159390747    0.7494755820
 H    0.4413183699    2.2728114709   -0.5561689567
 H   -1.2159397949    1.6890341285   -0.8322153616
 H   -0.6651025592    2.0514158664    0.8124694394
 H   -0.6896751219   -0.4306708364    0.3864513784
 H    0.4305638293   -1.4002651473   -1.5671990524
 H    1.0550094328    0.1948817248   -2.0618363276
 H    4.1139037761   -1.9832492567   -1.0610295055
 H    3.7926581460   -0.8344480016    2.5017262773