17

 C   -0.0485922561    1.5252490129    0.1007154961
 C    1.2804391860    0.8269519598    0.0143411360
 C    0.0147065301    0.0237463608    0.0470439443
 N   -0.3180484745   -0.6534051530   -1.1853372472
 C   -0.0422409506   -0.0662026786   -2.4784140490
 C    1.2929975192    0.7811411135   -2.5129010372
 C    2.0553776773   -0.4109718306   -2.0391487193
 C    0.7291998546   -1.2525538695   -2.0048641938
 N    1.9889341679    0.8105632569   -1.2449384006
 H   -0.3144192267    1.9826716136    1.0466928575
 H   -0.4067328529    2.0538798275   -0.7770497348
 H    1.9483726565    0.8586429713    0.8689648172
 H   -0.2664616462   -0.5468467220    0.9261846938
 H   -0.8345323873    0.0095153165   -3.2147342921
 H    1.5342355531    1.5127428836   -3.2759143159
 H    3.0222101379   -0.7977440794   -2.3378742078
 H    0.6569490818   -2.2987217332   -2.2767233373