18

 C   -0.4819439086    0.9952914962    0.0511322071
 O    0.5714746566    0.0610677383   -0.1359192660
 C    0.9666479663   -0.5489784012    1.0376130043
 C    0.1118440730   -1.6300575760    1.7011161342
 N   -0.9337278972   -2.1942967112    0.8860976162
 C   -0.3456388402   -2.6995787843   -0.1231835819
 O    1.0088130379   -2.6820902117   -0.1721059137
 C    1.4348539162   -1.9719969787    0.9882392886
 C    2.7294341143   -2.4711006350    1.5549916501
 H   -0.1772603398    1.8129480737    0.7205531666
 H   -0.7139968830    1.4103192422   -0.9320453815
 H   -1.3729390057    0.5063117268    0.4631288568
 H    1.5056513124    0.0896141863    1.7408353489
 H   -0.0420026028   -1.6241404144    2.7741999807
 H   -0.8249588238   -3.1781043325   -0.9678630595
 H    3.5447172343   -2.3473153188    0.8346961372
 H    2.9853583957   -1.9084883038    2.4568846114
 H    2.6575675543   -3.5309006257    1.8178553405