20

 C    0.1553181106    1.5732089151   -0.0986678113
 C   -0.1000811490    0.0781425860    0.0701821471
 O    0.2492530295   -0.6477743111   -1.1175960338
 C    0.5847382816   -0.5033559948    1.3209617525
 C    0.6567169470   -2.0248863891    1.2881259816
 O   -0.5019172415   -2.6500320040    0.8071642078
 C    1.9746776129   -2.7090028331    0.9956106023
 C    1.3586204831   -2.7642670228    2.3819003044
 H    1.2263578967    1.7740540871   -0.2246255099
 H   -0.3706670215    1.9546901549   -0.9778625954
 H   -0.1859794870    2.1298904957    0.7804049268
 H   -1.1774660380   -0.0930494720    0.1634324402
 H    1.2089092798   -0.6326014178   -1.2057106716
 H    1.5983854383   -0.0930577193    1.4211604064
 H    0.0222478780   -0.1672002581    2.2014147347
 H   -0.5411765130   -2.4204191461   -0.1321094294
 H    1.9332526166   -3.6142753316    0.4004362253
 H    2.8666386214   -2.1065549338    0.8528627067
 H    1.8233476403   -2.1931789542    3.1786908727
 H    0.9151415843   -3.7034532008    2.6912809228