18

 C   -0.2557160994    1.3367511245   -0.3527853457
 O   -0.2177719757   -0.0456202837   -0.6280101816
 C    1.0827776637   -0.5830119056   -0.5583186499
 C    0.9528926894   -2.0768794739   -0.7438816826
 C    1.0264434781   -2.8032502182   -2.0185798248
 C    1.9882640361   -2.1799603743   -3.0249438925
 C    3.0233426160   -2.2645116210   -1.8907412279
 O    4.1769857572   -1.9991674299   -1.7653314391
 N    2.1433030066   -2.9597527562   -0.9598620114
 H    0.1143337802    1.5604650905    0.6597554523
 H    0.3452960034    1.9128886303   -1.0734423247
 H   -1.2981576146    1.6539623627   -0.4280176730
 H    1.7387194012   -0.1242361793   -1.3142757451
 H    1.5416174656   -0.3822661072    0.4244303433
 H    0.2916074531   -2.5212182061   -0.0037560748
 H    0.3825075585   -3.6475518426   -2.2324669988
 H    2.2531692968   -2.8552155404   -3.8426699717
 H    1.7535906738   -1.1953539698   -3.4355294620