14

 N    0.0713823592    1.2087691877    0.6161380734
 C   -0.0811267892    0.0577601397   -0.2975642520
 C   -1.4357849440   -0.5440409179   -0.1172738961
 C   -2.1517436489   -0.7244800249    1.0549465041
 N   -1.7990262767   -0.4243503663    2.3321958732
 O   -3.3034978292   -1.3019085313    0.7952719370
 N   -3.3046340865   -1.5063665990   -0.7075281739
 N   -2.2192329637   -1.0448233749   -1.1114543987
 H    1.0331952490    1.5336305343    0.6053528197
 H   -0.5014340794    1.9810977175    0.2869423549
 H    0.0577694331    0.3003666965   -1.3607424037
 H    0.7061869059   -0.6610353920   -0.0325855363
 H   -1.0767253223    0.2872727366    2.3775438992
 H   -2.5492747773   -0.3526105859    3.0018195693