17

 C   -0.4153068698    1.4380167518   -0.0829001352
 C   -0.0294809911   -0.0230272995   -0.0778668591
 C    0.6231731025   -0.7605684563   -1.1768777801
 C    1.6600196371    0.0826255758   -1.9139216845
 C    2.3719072511    0.2454600349   -0.5365811543
 C    2.6893909579    1.5596931394   -0.0098877974
 C    2.9985813520    2.6400366639    0.4193104440
 N    1.3185640162   -0.5881489036    0.1771728848
 H    0.2187491177    2.0543859744   -0.7205653578
 H   -1.4480029334    1.5311448530   -0.4372624438
 H   -0.3679729875    1.8526642621    0.9286674578
 H   -0.7422618775   -0.6352424953    0.4734527907
 H    0.2818424871   -1.7357194384   -1.5100682246
 H    2.2633354222   -0.4795795538   -2.6276084132
 H    1.2949074786    0.9911638799   -2.3987553282
 H    3.2840705386   -0.3585213484   -0.5189287388
 H    3.2594798582    3.5950184301    0.8038311795