18

 C   -0.0910246233    1.5694263393    0.0163357627
 C    0.0150496402    0.0451548444    0.0467640121
 N    1.1258767077   -0.5185626528   -0.8372680757
 C    1.6527989158   -1.2898276100    0.3133150399
 C    2.1713516370   -0.3021183511    1.3246174909
 C    0.6971092850   -0.6315798734    1.2738215455
 O    0.0085729751   -1.1647890741    2.3410719048
 C   -1.2681398731   -0.5773099816   -0.2501222708
 C   -2.3266576767   -1.0751901558   -0.5293605665
 H    0.8795589234    2.0244669495    0.2259857540
 H   -0.4229442212    1.9076495502   -0.9691126395
 H   -0.8179134013    1.9159813117    0.7578283402
 H    0.7094783803   -1.1416243108   -1.5234608443
 H    2.0028767539   -2.3098302183    0.2216328787
 H    2.6677578895   -0.7481204835    2.1812967224
 H    2.5733253291    0.6501279392    0.9907865030
 H    0.0062010523   -0.5200264454    3.0576678996
 H   -3.2604335537   -1.5232779276   -0.7639338369