20

 C    0.0557434330    1.4660632882    0.1463900429
 N   -0.0448320929    0.0245852147    0.1696383968
 C   -1.3328573418   -0.5887324252    0.5497230495
 C   -0.5480203710   -1.6965172533    1.2730226685
 C    0.6590342440   -0.7162053984    1.2336912200
 O   -1.0877731191   -2.0533485951    2.5158309251
 C   -0.3182995147   -3.0381237287    3.1845499992
 C   -0.9544942344   -3.3948193207    4.4453352395
 C   -1.4567891317   -3.7073403218    5.4901121815
 H    1.0873481867    1.7626120953   -0.0717906918
 H   -0.5831996049    1.8697499667   -0.6464762338
 H   -0.2426274040    1.9391796960    1.1016016496
 H   -1.9063865329    0.0018145364    1.2824646241
 H   -1.9840297331   -0.8653963004   -0.2853672595
 H   -0.3817699854   -2.5849281858    0.6477667478
 H    1.6494922091   -1.0928558021    0.9567427961
 H    0.7282893377   -0.1629811372    2.1859039137
 H   -0.2143237690   -3.9366861352    2.5526561712
 H    0.7020010508   -2.6680383872    3.3783109278
 H   -1.9071901365   -3.9795610961    6.4125055918