14

 C   -0.2572778308    1.5367466472   -0.0449924304
 C    0.0747141102    0.0572825121    0.0389503220
 C    0.9237607658   -0.4981654525   -1.1399663523
 N    2.1941661961   -0.9346452096   -0.5399609549
 C    2.0707072903   -0.7139816625    0.7045159544
 O    0.9328782029   -0.1799820923    1.2003396098
 C    3.0908437232   -0.9974640382    1.6777139767
 N    3.9064589191   -1.2237297198    2.4633546441
 H    0.6502886670    2.1286985166   -0.1984599526
 H   -0.9325191033    1.7160310826   -0.8880517677
 H   -0.7482958765    1.8799660821    0.8690593512
 H   -0.8308428922   -0.5326762565    0.2063017046
 H    0.4499166804   -1.3473450925   -1.6421663853
 H    1.1226164777    0.2641373433   -1.9014121094