17

 O    0.0612295383    1.2080323120   -0.9190031136
 C    0.0042068605   -0.1717813048   -0.6511930213
 C   -1.0520138892   -0.4561900049    0.4347925994
 O   -2.2952851139    0.1426994564    0.0444496297
 C   -1.1790728884   -1.8823984129    0.7135732667
 C   -1.2822343091   -3.0721068317    0.8794413112
 C   -1.3839251975   -4.4840404031    1.1288132008
 C   -2.5163195885   -5.2843432718    0.6207853363
 O   -1.2381991621   -5.3706436793    0.0067386621
 H   -0.8585261203    1.4965204892   -0.9879841620
 H   -0.2470406867   -0.7614487782   -1.5492158516
 H    0.9927280304   -0.4908441069   -0.3074903127
 H   -0.7577043740    0.0820061288    1.3431810658
 H   -2.7150858478   -0.4524120140   -0.5878993819
 H   -0.8849516380   -4.8329915185    2.0321695251
 H   -2.8352158809   -6.1622071648    1.1811107171
 H   -3.2888552827   -4.7906563356    0.0344423288