22

 C    0.1621132166    1.6644520423    0.0468450496
 C    0.0774238400    0.1371702243    0.0929522832
 C    0.5764609187   -0.5123135036   -1.1995381645
 C    0.5176188827   -2.0071924811   -1.1919441637
 N    0.1169738376   -2.7500886708   -0.2420768654
 C    0.2585434362   -4.1353506100   -0.7061609340
 C    0.7769624824   -4.0262872608   -2.1674837532
 C   -0.1765451003   -4.5546249467   -3.2277131455
 O    0.9515886239   -2.5954830603   -2.3432079645
 H    1.1936165106    2.0035139283   -0.1023975230
 H   -0.4403230480    2.0740496941   -0.7720936421
 H   -0.2008222023    2.1075249242    0.9791285178
 H    0.6603135664   -0.2503354359    0.9348467425
 H   -0.9544033255   -0.1799776139    0.2763571198
 H   -0.0008698955   -0.1565769408   -2.0635209329
 H    1.6142648126   -0.2184601193   -1.4075778277
 H    0.9516748224   -4.6787960576   -0.0546165138
 H   -0.7069778191   -4.6525762975   -0.6528996841
 H    1.7653970507   -4.4817736023   -2.2875370415
 H   -1.1652810067   -4.0978697847   -3.1165251182
 H    0.1947106967   -4.3378815150   -4.2331866404
 H   -0.2861785600   -5.6395951630   -3.1271758083