21

 C   -0.1962165273    1.4919077092    0.0245834366
 C    0.0419839993   -0.0198137846   -0.0819674245
 C    0.7535941345   -0.3738072678   -1.3941093222
 C    0.7871849749   -0.5657662796    1.1672390742
 O   -0.0573582691   -0.2425384766    2.2950764494
 C    0.9197062163   -2.1113514900    1.1572138383
 O   -0.3483613873   -2.7221623625    1.1260467425
 C    2.1137795131    0.0317715876    1.3348327824
 C    3.2173257005    0.4760073849    1.5131820993
 H    0.7503423109    2.0418482606   -0.0138827147
 H   -0.8163532421    1.8343726512   -0.8096278752
 H   -0.7011215322    1.7459216255    0.9581582267
 H   -0.9271023726   -0.5304193707   -0.0675320809
 H    1.7748114273    0.0221070242   -1.4103782502
 H    0.7999898512   -1.4526246540   -1.5645553812
 H    0.2133817622    0.0659864943   -2.2379839178
 H    0.4957982855   -0.2437236170    3.0841000564
 H    1.4771032455   -2.4535601493    0.2825150680
 H    1.4932848488   -2.4039233248    2.0519242432
 H   -0.8635344955   -2.2766095877    1.8118518274
 H    4.1878559360    0.8831246271    1.6587038222