17

 C    0.1473743614    1.4975899592    0.0712756144
 N   -0.2342922486    0.1218387001    0.4028407399
 C    0.7679244500   -0.5731047177    1.1722991713
 C    0.5038043390   -2.0945690294    1.4553862982
 C    1.9704444850   -2.4366703091    1.0218719515
 C    2.0476845250   -1.0214002205    0.4297407403
 O    2.7606300198   -0.4967514992   -0.3722688926
 C    0.0914058170   -2.4591788686    2.7975544677
 N   -0.2304083260   -2.7347943312    3.8734522699
 H    1.0444276090    1.4802127862   -0.5513467832
 H   -0.6600051527    1.9626220658   -0.5000102349
 H    0.3561424669    2.1249215005    0.9547844112
 H   -1.1044027810    0.1288391322    0.9272932321
 H    1.0714335233   -0.0683263113    2.1108820898
 H   -0.2155690264   -2.4737904051    0.7253065172
 H    2.6468223893   -2.5656744194    1.8715806345
 H    2.1039163790   -3.2685109326    0.3287854128