14

 N   -0.1077849672   -1.1963483971   -0.2033414083
 C   -0.0523075073   -0.0461245117   -0.1090196101
 C   -0.0001416442    1.4153187365    0.0277938861
 C   -0.6357889297    1.9157836038    1.3212627258
 C    0.2300478254    2.6767536877    1.9859894000
 C    1.5354283494    2.7326680671    1.2719605074
 C    2.2384140329    1.4263035483    1.1269151375
 N    1.3972446186    1.9280277985    0.0301423864
 H   -0.5114599714    1.8382705605   -0.8480956128
 H   -1.6393838927    1.6439333095    1.6211505313
 H    0.0418622371    3.1864122987    2.9225400774
 H    2.0790831312    3.6698708363    1.1954960565
 H    3.2964795130    1.3988509697    0.8841118049
 H    1.8773153249    0.5953887723    1.7272578679