20

 C    0.0041857882    1.5623109935   -0.0027150841
 C   -0.0043080456    0.0261129793    0.0138525971
 C    0.7456516927   -0.5034358093    1.2220435704
 O    1.5404949164   -1.4070409458    1.2012998564
 C   -1.4270365001   -0.5296242338    0.0377034683
 C   -2.5822065901   -0.2715989096   -0.9626739350
 N   -3.2350295315   -1.2456700776    0.0320844145
 C   -1.8969458671   -2.0018067969   -0.0391786301
 C   -2.5423596274   -0.3965232543    1.1098784428
 H    1.0233330494    1.9532458134   -0.0743543432
 H   -0.5634758106    1.9412178479   -0.8572769233
 H   -0.4503312509    1.9695493410    0.9071335629
 H    0.5006421881   -0.3714534024   -0.8740828733
 H    0.4841101799    0.0081874613    2.1795029004
 H   -3.0495055154    0.7168949897   -0.9725127088
 H   -2.4858100746   -0.6785309494   -1.9732917767
 H   -1.7483981155   -2.5391429312   -0.9798053300
 H   -1.7142574528   -2.6493079244    0.8224207556
 H   -2.4143156173   -0.9230597106    2.0598704653
 H   -3.0077580456    0.5820600291    1.2573948311