20

 C   -0.0821403915    1.5768233975    0.0879234385
 N   -0.0346313039    0.1337875610    0.0736048194
 C   -1.2542250485   -0.6121421057    0.4497089445
 C   -0.3839524082   -1.6212042357    1.2216757878
 O   -0.1319059146   -2.7672416455    0.4407117132
 C    1.1188075586   -3.3760880460    0.7074848402
 C    2.2720095433   -2.4076387719    0.6524112031
 C    2.0955677185   -1.0967100335    0.7987393286
 C    0.7407612508   -0.5601485026    1.1366303844
 H    0.9116158133    1.9862287291   -0.1235224833
 H   -0.7611347800    1.9339925894   -0.6939098771
 H   -0.4261695811    1.9952848383    1.0549846566
 H   -1.9238486664   -0.0504420797    1.1212175969
 H   -1.8292267104   -1.0146844608   -0.3898225597
 H   -0.7130239839   -1.9000666458    2.2310591528
 H    1.1023579654   -3.8977935815    1.6826307704
 H    1.2401618899   -4.1492723140   -0.0591319147
 H    3.2568183759   -2.8307560918    0.4723536837
 H    2.9270541903   -0.4020014295    0.7139969568
 H    0.7852787524    0.0384086387    2.0641513977