19

 C    0.1292671910    1.6136211947   -0.1338236594
 C   -0.0800621123    0.0974372285    0.0320934805
 C    0.5839441694   -0.4516498286    1.2083677954
 C    1.1375939347   -0.8928513230    2.1831514325
 C    1.8019247756   -1.4068722871    3.3662023578
 O    0.9241048753   -1.5522169196    4.5190884311
 C    0.9587767513   -2.9916846931    4.4334148976
 C    2.1002073789   -2.9372289206    3.3958487943
 O    1.9350645106   -3.5953136247    2.1723135643
 H    1.1922044764    1.8509438633   -0.2303646976
 H   -0.3874937623    1.9744132149   -1.0282095489
 H   -0.2597504024    2.1560533701    0.7320363026
 H   -1.1540018684   -0.1217946002    0.0901311000
 H    0.2841634836   -0.4253510876   -0.8617697268
 H    2.6606285338   -0.7742482154    3.6222129499
 H    1.1702488295   -3.4562075637    5.4030685188
 H    0.0323246335   -3.4053575596    4.0138434860
 H    3.0831705736   -3.1383979135    3.8386048354
 H    2.2987042682   -4.4822643848    2.2493463465