18

 C   -0.5640368792    1.3748301034    0.0672525748
 C    0.0545414825   -0.0113837793   -0.0271064951
 C    1.3607852057   -0.2231611678   -0.8641626959
 C    2.0435704500   -0.8541741887    0.3576469966
 O    2.7287154725    0.1698182023    1.1600503886
 C    1.6487511721    0.3136095885    2.0017349601
 N    1.5184304203    0.9235543378    3.0911043999
 C    0.7470557282   -0.6218848167    1.2297790701
 O   -0.0180613473   -1.5280051363    1.9403844766
 H    0.1732354284    2.1223749047    0.3771958954
 H   -0.9708476846    1.6850904684   -0.9010430799
 H   -1.3806363622    1.3888843022    0.7960208429
 H   -0.7008289841   -0.7414341690   -0.3343445681
 H    1.2386992666   -0.9022839672   -1.7105447872
 H    1.8577499851    0.6876603739   -1.2056632632
 H    2.6317930282   -1.7680374581    0.2927876740
 H    2.3780955828    1.4028611671    3.3644876284
 H    0.2556928749   -1.4934032252    2.8646957423