22

 C    0.0663775572    1.5317841834    0.1230776294
 C   -0.0807283147    0.0092546863    0.0113385381
 C    0.6588722556   -0.5588284732   -1.1975822345
 C    2.1854668530   -0.6555482187   -1.2394495097
 C    2.1463297802   -1.8818413030   -2.0646619395
 N    2.6451386130   -1.9738256890   -0.6643725084
 C    1.3831080284   -2.6888432569   -0.2857874429
 C    0.6726212407   -2.0932549914   -1.5164040434
 C   -0.4935856716   -2.7622393142   -2.1941663618
 H    1.1176170181    1.8208903244    0.2281122587
 H   -0.3276116228    2.0347667379   -0.7671715975
 H   -0.4729030084    1.9210657016    0.9919411071
 H    0.2827771443   -0.4549301804    0.9342432247
 H   -1.1456154076   -0.2487017346   -0.0671627857
 H    0.3321173630   -0.0319974524   -2.1039920983
 H    2.9220389576    0.1375835392   -1.2356442876
 H    2.6946379876   -2.2127517029   -2.9373270185
 H    1.5616832225   -3.7636833772   -0.3868686237
 H    0.9933932858   -2.4774697730    0.7164453382
 H   -1.3815191707   -2.7458025659   -1.5509209064
 H   -0.7549392960   -2.2595517842   -3.1317159526
 H   -0.2729177655   -3.8102259259   -2.4254022957