18

 C   -0.0053943357    1.5318962539   -0.0706757152
 C   -0.0374630233    0.0256614641    0.0050622495
 C    1.1916628389   -0.7661064575   -0.1976857247
 N    0.6267799570   -0.6060813128    1.1774702927
 C   -0.1384229291   -1.7700025846    1.5326342760
 O    0.0981474636   -2.4523043871    2.4871758558
 C   -1.2746393196   -1.9907615886    0.5200492579
 C   -1.3632989091   -0.6894173784   -0.2911845306
 O   -2.4009604246    0.1616803529    0.1762321403
 H    0.9771731182    1.9036931089    0.2292568737
 H   -0.2057373920    1.8661426748   -1.0944134315
 H   -0.7637815927    1.9672089108    0.5817204577
 H    1.1332335384   -1.7487964879   -0.6595937414
 H    2.1400890313   -0.2583329413   -0.3415151607
 H   -1.0282551125   -2.8632930452   -0.0940862155
 H   -2.2055794799   -2.2171051856    1.0440224230
 H   -1.4774214169   -0.8725284267   -1.3692616791
 H   -3.2432790121   -0.2595595194   -0.0195174180