15

 O    0.0910157705    1.3394849841    0.2565530907
 C    0.0602292688    0.0165056822   -0.0224990179
 C    0.0506428616   -0.7469379200   -1.1692546324
 C    0.0619729120   -0.7898248888   -2.6248343620
 C    0.0329214354   -2.0785616601   -3.0212145931
 C   -0.0013593703   -3.0416704162   -1.8396264620
 C    0.0129962421   -2.0800817898   -0.6832556887
 N   -0.0005247342   -2.1734271497    0.6310846202
 N    0.0296244107   -0.8591229331    1.0200066144
 H    0.1116444678    1.8275396709   -0.5721042037
 H    0.0891161327    0.0668645354   -3.2868746834
 H    0.0330333417   -2.4192295514   -4.0485018958
 H   -0.8961209633   -3.6769075880   -1.8543101181
 H    0.8604245373   -3.7211318723   -1.8393543451
 H    0.0270252569   -0.6231278832    1.9974939069