13

 N    0.3573706298    1.2431225772    0.0038213170
 C    0.0721032806    0.0119999202    0.0016159736
 N   -1.2328984537   -0.4925764849    0.0110524471
 C   -2.4331514225    0.2085937161    0.0263047067
 O   -2.5459084759    1.4021073145    0.0343972429
 C   -3.6413203836   -0.7595899237    0.0316805595
 C   -4.9200024657   -0.0626385250    0.0487692528
 N   -5.9534051793    0.4508897165    0.0622829540
 H    1.3690515385    1.3633147385   -0.0046660567
 H    0.7934934630   -0.8149998184   -0.0081568858
 H   -1.2973930751   -1.4984880881    0.0063561077
 H   -3.5962310857   -1.4062288108   -0.8533180484
 H   -3.5791531204   -1.4179972422    0.9069141097