22

 C    0.0708990673    1.3228767035   -0.9435266956
 C    0.1399974427   -0.0523538355   -0.2665844062
 C   -1.2447454830   -0.7008424246   -0.1984247128
 C   -1.6817016084   -2.1203527237   -0.3550396233
 C   -0.8578646550   -3.3288977725    0.1027176437
 C   -1.6673219906   -3.6631183245    1.4126108005
 C   -1.0772503571   -2.2773371041    1.8289316754
 C    0.1999310679   -2.7355860196    1.0685547470
 N   -1.8976321727   -1.3953261860    0.9411123659
 H    1.0605826983    1.7870009606   -0.9921101059
 H   -0.3106872733    1.2408309184   -1.9670313117
 H   -0.5925160947    1.9995316283   -0.3946197363
 H    0.8436654251   -0.6833207432   -0.8190978998
 H    0.5492574406    0.0685549163    0.7419161988
 H   -1.9903841081   -0.0216019496   -0.6158224457
 H   -2.5664289099   -2.3329095081   -0.9533059811
 H   -0.6113299820   -4.0847067172   -0.6427075550
 H   -2.7552771598   -3.7239028640    1.3375726513
 H   -1.2611565179   -4.5076358485    1.9739044200
 H   -1.0560377538   -1.9262154370    2.8600246785
 H    0.7108573327   -3.5274677450    1.6203384276
 H    0.9315356118   -2.0184615239    0.7147956547