25

 C   -0.0580785681    1.5329258625    0.0097110855
 C    0.0453795037    0.0050044153    0.0063755568
 C    0.9219924962   -0.5623185092   -1.1344937037
 C    2.3651331358   -0.2720054947   -0.6444932254
 C    2.2767724231   -0.2813875536    0.9122009665
 C    0.7876434042   -0.5765637486    1.2322268299
 C    0.5111832032   -2.0923777757    1.3041489867
 C    1.0122371672   -2.8249434244    0.0442292284
 C    0.6564759155   -2.0769748104   -1.2554173105
 H    0.9230424984    2.0145825665    0.0682176424
 H   -0.5471389003    1.8938323347   -0.9018162098
 H   -0.6472415028    1.8831944998    0.8644133728
 H   -0.9711983958   -0.4039352871   -0.0537961095
 H    0.7151783699   -0.0777574887   -2.0948581397
 H    3.0761511185   -1.0113813670   -1.0261469083
 H    2.7062054866    0.7015852201   -1.0076076388
 H    2.9405213337   -1.0258001789    1.3629473372
 H    2.5739236331    0.6875289189    1.3232478874
 H    0.4731446513   -0.1034140162    2.1687576945
 H    0.9858718076   -2.5241898987    2.1936501395
 H   -0.5693042414   -2.2469992095    1.4222262831
 H    2.1019388087   -2.9319335874    0.1054398532
 H    0.6151118039   -3.8455629066    0.0155459298
 H   -0.4036041012   -2.2294300221   -1.4968521215
 H    1.2290636590   -2.4984123589   -2.0906043065