16

 C    0.0364673500   -1.1914358898   -0.1260974724
 C    0.0009296966    0.0058580212   -0.0251715832
 C   -0.0065881994    1.4522918947    0.0607154842
 C   -0.4219741420    2.2482466583   -1.2193853314
 C    0.8692590707    3.1146719884   -1.1004850425
 C    1.3563133554    2.2395585283    0.0765362451
 O    1.3721148949    2.9065866192    1.3521895277
 C    0.1408610085    2.6839766667    1.8786350939
 N   -0.6922425515    1.9352704244    1.2827517918
 H    0.0556103132   -2.2504923412   -0.2030668121
 H   -0.4546355622    1.6228081920   -2.1128422160
 H   -1.3719375242    2.7736848187   -1.1107152494
 H    1.5202225922    3.1027861903   -1.9766703843
 H    0.7012250419    4.1521590679   -0.8050083142
 H    2.2923839440    1.6963901148   -0.0444220523
 H   -0.0390675981    3.1888084262    2.8214140651