20

 O   -0.1082993036    1.4869952762   -0.2566142755
 C    0.0363135389    0.1082934351    0.0581995654
 C   -1.3553191505   -0.5061235041    0.0380179266
 C   -1.9417905872   -0.6461176570   -1.3971165023
 C   -1.5565846239   -2.1509153194   -1.3840721290
 C   -1.4142244517   -2.0632698508    0.1597306743
 C   -0.2994298168   -2.8301849451    0.8439582407
 O   -0.5978555065   -4.2144530228    0.7128658864
 H    0.7682207115    1.8803151210   -0.2958340796
 H    0.6893702943   -0.3938453958   -0.6739145363
 H    0.4955265948   -0.0237032247    1.0516286155
 H   -1.9736171295    0.0445788916    0.7529834334
 H   -3.0245377374   -0.4972684008   -1.4130548057
 H   -1.4942149129   -0.0087066233   -2.1627206317
 H   -2.2804651984   -2.8661590686   -1.7788986754
 H   -0.5931959074   -2.3378353952   -1.8690929480
 H   -2.3575002529   -2.3533679334    0.6345917189
 H    0.6712681153   -2.5936735102    0.3789515174
 H   -0.2351154952   -2.5360954010    1.9050870351
 H    0.1186383092   -4.7161408316    1.1123671297