20

 C   -0.8443848169    1.1410502362   -0.0449659171
 C    0.1006478074   -0.0554447832   -0.0497640533
 C    1.2998192735    0.0803399308   -1.0202029070
 N    2.2801877225   -0.8372376951   -0.4555955461
 C    2.0136238755   -1.2155844251    0.8199238019
 O    2.6088095806   -2.0268641896    1.5027092114
 C    0.7738571673   -0.4321585070    1.2895161411
 C    1.2300037270    0.7651490178    2.1376232040
 O   -0.0519072064   -1.2861212821    2.0555072628
 H   -0.3288791642    2.0678539880    0.2255795735
 H   -1.2911596574    1.2865777201   -1.0343443722
 H   -1.6591312686    0.9847134475    0.6679502064
 H   -0.4601525082   -0.9501801436   -0.3436309361
 H    1.0349798403   -0.2035601200   -2.0435448406
 H    1.6803597412    1.1116003852   -1.0478084109
 H    3.0802338951   -1.1899018629   -0.9566012828
 H    1.8199312557    1.4847065523    1.5593328942
 H    0.3585917140    1.2782928562    2.5520642321
 H    1.8470473730    0.4063698879    2.9663052769
 H    0.5523803887   -1.9136343935    2.4799419919