19

 O   -0.0658640184    1.4110581538   -0.0179221218
 C    0.0168436399   -0.0001664338    0.0069865063
 C   -1.3856034872   -0.6297849741    0.0746319702
 C   -0.9986405657   -2.0690853405    0.4837142820
 C   -0.3731783363   -2.7826761231   -0.7482276493
 C    0.5318266176   -1.8670549733   -1.5425251976
 C    0.7173067152   -0.5875528490   -1.2146549760
 C    0.0763668383   -1.7813691300    1.5249068086
 C    0.6580301363   -0.6125641595    1.2602264010
 H    0.8253470513    1.7643137148   -0.1099063465
 H   -1.9689585997   -0.1413970471    0.8596004539
 H   -1.9210710481   -0.5624027597   -0.8757834003
 H   -1.8366675881   -2.6559932464    0.8697290874
 H    0.1881975012   -3.6729410961   -0.4298990999
 H   -1.1732294153   -3.1575900487   -1.4020352960
 H    1.0418049112   -2.2974866755   -2.4009926917
 H    1.3735690818    0.0613042909   -1.7903351666
 H    0.3645834011   -2.4850943826    2.2978093189
 H    1.5106781346   -0.1703213099    1.7637517772