24

 C    0.5274971048    1.0767209373    0.9248045972
 N    0.3127221280   -0.3516963661    0.7337327088
 C    1.5014517059   -1.1420188390    0.9840420364
 C   -0.9376315843   -0.7700086551    0.3267633101
 O   -1.8265858944    0.0517370304    0.1548063074
 C   -1.2460220867   -2.2777005291    0.0809295818
 C   -2.7172191937   -2.3616513660   -0.3762478379
 C   -0.3794742894   -2.8626283249   -1.0576927949
 C   -1.1235816756   -3.1037610041    1.3822115807
 H    1.3200026188    1.4375639455    0.2561235637
 H   -0.4001185067    1.6010166061    0.7091574868
 H    0.8369230714    1.2818216898    1.9578086450
 H    1.8767100457   -0.9475970940    1.9979124770
 H    1.3152360929   -2.2049205151    0.8952646306
 H    2.3015156314   -0.8738354876    0.2796606654
 H   -2.8795740706   -1.7931955788   -1.2938196041
 H   -2.9803359244   -3.4088356772   -0.5598487977
 H   -3.3915013405   -1.9573056220    0.3806534032
 H    0.6851121607   -2.9272808368   -0.8255734774
 H   -0.7227990227   -3.8763114094   -1.2908766190
 H   -0.4849647695   -2.2617170000   -1.9667307677
 H   -1.7492997054   -2.6719834845    2.1698822341
 H   -1.4786600735   -4.1238301596    1.1999616403
 H   -0.1070986321   -3.1803382197    1.7727949904