19

 C   -0.2976560504    1.4512861380   -0.1072671780
 C   -0.0017690391   -0.0401143034   -0.0032041119
 C    1.2575677104   -0.5476956346   -0.7081609842
 O    1.7177403931   -0.5282893246   -1.8044974658
 O    1.8087727717   -1.0987864839    0.4205777326
 C    0.6628866915   -0.6492931423    1.2630486357
 C    1.1489718334    0.2860370167    2.3523282667
 C   -0.0179189939   -1.9021569604    1.8087445456
 O    0.8510345118   -2.6587273213    2.6249639017
 H    0.5627807510    2.0619146653    0.1771757593
 H   -0.5568865023    1.7020841860   -1.1396287061
 H   -1.1417692531    1.7292580895    0.5309478709
 H   -0.8766214290   -0.6189726580   -0.3194075416
 H    1.7968652904    1.0665993661    1.9480664002
 H    0.2977956204    0.7617733528    2.8501855179
 H    1.7063572007   -0.2831741983    3.0995584030
 H   -0.8726436547   -1.6179560749    2.4326086755
 H   -0.3996127893   -2.4984804720    0.9653595652
 H    1.6105362573   -2.8924878707    2.0776071532