25

 C    0.0398826357    1.5566085113    0.0304814747
 C    0.0390757662    0.0224380071   -0.0537649885
 C    0.7567143194   -0.4359268798   -1.3321259625
 C    0.6619946239   -0.5941989985    1.2110894338
 C   -0.1343050727   -0.3291169339    2.5405849210
 C   -0.2938838829   -1.7780055188    3.0410692322
 C    1.1189520842   -2.3695180320    2.7715280678
 C    0.7076089875   -2.1415479968    1.2873931699
 C   -0.7329637668   -2.5173634280    1.7456794183
 H    1.0658562500    1.9422179376    0.0744911273
 H   -0.4416792771    1.9991633929   -0.8478142569
 H   -0.4880323889    1.9180327320    0.9180977275
 H   -1.0073290731   -0.3083651992   -0.1174988756
 H    1.8199239418   -0.1676252697   -1.3014872695
 H    0.6902080135   -1.5181392709   -1.4754851554
 H    0.3219764212    0.0426358329   -2.2161521884
 H    1.6840482470   -0.2011637472    1.2983902586
 H    0.4143100333    0.3017300764    3.2461424071
 H   -1.1035945227    0.1451270365    2.3533679130
 H   -0.8107979910   -1.9237161459    3.9905369299
 H    1.9893907775   -1.8264632270    3.1539447036
 H    1.1915272391   -3.4285829065    3.0309143959
 H    1.2088828787   -2.6692656710    0.4762561494
 H   -0.8522919430   -3.5931264803    1.8956061051
 H   -1.5866415407   -2.1233017711    1.1868175419