18

 O   -0.0460314000    0.0246064535   -0.0137556096
 C   -0.0131740540    1.2139882926    0.0545018244
 O    1.1348810962    1.9181265897   -0.0979186703
 C    1.0210533076    3.3235991582   -0.0555869138
 C    2.4153333437    3.9197117829    0.1374518404
 N    2.4143787899    5.3750769402   -0.0053920062
 C    1.7326293891    5.7931704836   -1.2328334138
 C    0.3537821647    5.1477057614   -1.3835740917
 O    0.4553377927    3.7288243800   -1.2794440970
 H   -0.8873516930    1.8594558882    0.2569992031
 H    0.3538772455    3.6254446994    0.7752126618
 H    2.8109663479    3.6438503352    1.1190038677
 H    3.0695838211    3.4839115369   -0.6266478670
 H    1.9597414424    5.7980697716    0.7989966769
 H    1.6467189536    6.8846194142   -1.2421535861
 H    2.3573058658    5.5007192296   -2.0860156676
 H   -0.3306257325    5.5330981303   -0.6079886580
 H   -0.0896674806    5.3483745825   -2.3629315533