21

 C   -0.0064401119    1.3550436730    0.3881165271
 C   -0.1924410532   -0.1500508688    0.1776679624
 C   -1.6414659284   -0.5677437124   -0.1344523787
 C   -1.8969058894   -2.1095905106   -0.0860070388
 C   -2.7383803591   -1.8539742484    1.1941236644
 C   -2.1584660364   -2.3702370459    2.5042026063
 N   -2.6349809313   -0.3885320068    0.9557023887
 C   -2.0802325367    0.0731431158   -1.3876045068
 N   -2.4058624705    0.5617785321   -2.3834658638
 H    1.0395182267    1.5843903017    0.6099397935
 H   -0.2955664212    1.9166387842   -0.5048654513
 H   -0.6077090523    1.7261260937    1.2253868026
 H    0.4450591762   -0.4923061256   -0.6467517358
 H    0.1246462550   -0.7003386924    1.0707353605
 H   -2.4594548155   -2.4974298649   -0.9349865942
 H   -0.9917826532   -2.7049822881    0.0511489141
 H   -3.7778934558   -2.1908437984    1.1083832077
 H   -1.1016963022   -2.1039875480    2.6146334914
 H   -2.7048664901   -1.9564458322    3.3592741844
 H   -2.2398456467   -3.4614833164    2.5567393834
 H   -2.3052155642    0.1647464284    1.7398742731