18

 O   -0.3334638919    1.3855220442    0.6449491477
 C    0.0229858396    0.1693848029    0.0009351987
 C    0.8843868792   -0.7732998802    0.8782969066
 C   -0.1153898932   -1.6802195230    1.6426912715
 C   -1.3173937285   -1.7659448376    0.7186953769
 C   -1.2283485596   -0.6477015395   -0.2908403898
 N   -0.9747759917   -2.0328495039   -0.6650538646
 C   -1.7679532047   -2.7735410850   -1.5251413430
 O   -2.3289273087   -3.8014949825   -1.2351151224
 H   -0.8062876329    1.1695085759    1.4564584126
 H    0.5508278169    0.4727113217   -0.9072565454
 H    1.5211187846   -1.3858251562    0.2360443440
 H    1.5323909091   -0.1930515384    1.5385558963
 H    0.3068454565   -2.6614086917    1.8754386644
 H   -0.4277731769   -1.2285189965    2.5921134475
 H   -2.2731197849   -2.1421152482    1.0689929344
 H   -2.1113635584   -0.1509280477   -0.6825593111
 H   -1.7734124245   -2.3448783741   -2.5459453644