19

 O   -0.1268280858    1.3485789947   -0.0540455896
 C    0.0184219291   -0.0268495489   -0.0350631276
 C    1.1274313280   -0.7559150790   -0.7894539606
 C    0.6708050237   -2.1926326124   -0.4347053121
 C    0.5632934684   -2.1261663712    1.1136951519
 C   -0.3312770799   -0.8949373266    1.1784795102
 C   -1.2029821093   -0.9118729325   -0.0818243745
 O   -2.4627912596   -0.3441104839   -0.1434680933
 C   -0.8169636764   -2.1647944191   -0.8639655397
 H    0.5548490625    1.7300133769    0.5096501578
 H    1.1047177066   -0.5515567781   -1.8647318815
 H    2.1286351450   -0.5227776166   -0.4079606562
 H    1.2741489670   -3.0037922000   -0.8413177048
 H    0.0999834559   -3.0231302691    1.5397677183
 H    1.5371402212   -1.9818039148    1.5948584100
 H   -0.6976266863   -0.4373769583    2.0886073488
 H   -3.0643130688   -0.8919644187    0.3722360829
 H   -0.9499433090   -2.0403004253   -1.9434649548
 H   -1.3680167424   -3.0563964071   -0.5419763554