18

 N    0.4037740900   -1.1567320936    0.8905767296
 C    0.2942852078   -0.0857353462    0.4732036478
 C    0.0907114224    1.2788211188   -0.0365103832
 C   -0.9732852475    2.0092128546    0.8161749487
 O   -1.3623454622    3.2024063774    0.1784837931
 C   -0.6525880773    4.3765799184    0.5496550627
 C    0.8813740052    4.2661164603    0.4393780205
 C    1.3663842171    3.2340870982   -0.5830415324
 O    1.3521059491    1.9083939688   -0.0557955777
 H   -0.3199453069    1.2071169921   -1.0574448911
 H   -1.8603804342    1.3707079813    0.8886822039
 H   -0.5862949686    2.1783677164    1.8300134185
 H   -1.0278421708    5.1411182604   -0.1368906957
 H   -0.9336192751    4.6821910598    1.5686509522
 H    1.2823694474    5.2527978406    0.1790779534
 H    1.3253324397    3.9941827301    1.4026875671
 H    0.7836595502    3.2843606065   -1.5140099302
 H    2.4155298137    3.4207423063   -0.8269186670