15

 O   -0.0856100426   -0.0309491351    0.0962390502
 C   -0.0200134825    1.1800202073    0.0417456560
 C    1.2258009053    1.9296991057   -0.0106127534
 C    1.3293058302    3.2720084885   -0.0122128045
 N    2.6521526422    3.7693542936   -0.0792004484
 C    3.4149416456    3.4679084397    1.1668770812
 C    3.5029181392    2.5442445182    0.0104361603
 C    2.6086991999    1.3067112269   -0.0497127401
 H   -0.9402656138    1.8060901238    0.0330481803
 H    0.5162624151    3.9885310908    0.0272771551
 H    4.2303892769    4.1543242864    1.3712555750
 H    2.8340670387    3.1609843139    2.0322953180
 H    4.4011243508    2.5703794563   -0.5974032737
 H    2.7695657331    0.6019249685    0.7726326290
 H    2.7702954019    0.7469555356   -0.9775756749