14

 O    1.0061253993    0.1874743240   -0.6157360265
 C    0.8350136067    1.3660969744   -0.6243565025
 O    1.2714151243    2.1678654299    0.3763262083
 C    1.0338239704    3.5697156022    0.2742462870
 C    2.3513440395    4.3044929921    0.0941140095
 O    2.8915120931    4.0210464389   -1.1943085988
 C    4.0319838565    3.2941686476   -1.2688182344
 O    4.5368212194    3.0074091397   -2.3087412572
 H    0.3109342616    1.9252326186   -1.4223600146
 H    0.3645482283    3.7892961774   -0.5663802981
 H    0.5501776906    3.8944048065    1.2010579224
 H    2.1866135163    5.3849035983    0.1562903731
 H    3.0548288112    4.0108161468    0.8825632056
 H    4.4264166128    3.0144697634   -0.2736807238