17

 C   -0.1479395964    1.5102933985   -0.0847555348
 N    0.1192067639    0.0869064916    0.0049173755
 C    0.7909113323   -0.5439468917   -1.1529957165
 C    1.3635169519   -1.8732160854   -0.5917185368
 N    1.4868186560   -1.5073848318    0.8080443530
 N    2.0434360920   -2.0864998906    1.8992192326
 N    1.7056882895   -1.3334853442    2.9074472267
 C    0.9152691682   -0.2914200564    2.4906328392
 C    0.7639925784   -0.4163418155    1.1276068884
 H    0.7698596665    2.1114687162   -0.1937828166
 H   -0.7949762730    1.7040780944   -0.9447301958
 H   -0.6746007217    1.8388502328    0.8143842018
 H    0.0883800742   -0.7012173691   -1.9750773623
 H    1.6115944061    0.0955116665   -1.5153996354
 H    0.6654722416   -2.7088251069   -0.7121210401
 H    2.3242426987   -2.1443842654   -1.0317776428
 H    0.5342150118    0.4413631071    3.1805219041