17

 C   -0.0377098004    1.4902666857   -0.1939640110
 C    1.4295318745    1.8817674924    0.0370600680
 C    2.1831937383    0.9222726670    0.6039326796
 C    1.3259358304   -0.2655316038    0.8634767003
 N    0.5078976900   -0.4973891465    2.1176473056
 C   -0.3022371614   -1.1330121720    1.0318340851
 C    0.9207524356   -1.6277380673    0.1730098819
 N    0.3885993954   -0.9925097605   -1.0721683130
 C    0.0572980792   -0.0088048132    0.0146954954
 H   -0.6893820963    1.9837722086    0.5364266781
 H   -0.4016332176    1.7596019164   -1.1913412640
 H    1.7978799941    2.8714446462   -0.2185299849
 H    3.2280026294    1.0341403264    0.8694735215
 H    0.9437373071   -1.2182776286    2.6985562411
 H   -1.2526912603   -1.6399313105    1.2031768678
 H    1.4116936554   -2.6040291384    0.1896234751
 H    1.1711848264   -0.6314817317   -1.6272492466