20

 C   -0.2080669948    1.4492687501   -0.0890185657
 N   -0.1576823766   -0.0014477357   -0.0967567838
 C    0.6162720506   -0.5919121846   -0.9127248891
 O    1.3780740813    0.0908403319   -1.8240683780
 C    2.5095417571   -0.5975917476   -2.3660850249
 C    2.1501725910   -1.9659928628   -2.9455918502
 C    3.4129291148   -2.7318453163   -3.3622298225
 C    1.3360193689   -2.7089876426   -1.9177989442
 C    0.6658506668   -2.0565901402   -0.9643730414
 H    0.7175833357    1.9278479261   -0.4292744480
 H   -1.0211783163    1.7984068789   -0.7396854615
 H   -0.4414365948    1.7890507474    0.9246616765
 H    2.9161295472    0.0698868611   -3.1301500046
 H    3.2676399706   -0.7235398271   -1.5796917269
 H    1.5294924137   -1.8131972208   -3.8417068243
 H    4.0661445991   -2.9127254797   -2.5017697854
 H    3.1527693151   -3.7026003807   -3.7949694835
 H    3.9843143754   -2.1738585942   -4.1110010688
 H    1.3066699813   -3.7943489063   -1.9722689418
 H    0.0751790440   -2.5609224570   -0.2094192219