18

 C    0.0917379926    1.3311151938    0.1947381855
 O    0.1648697423   -0.0858024883   -0.0133181974
 C    0.7353850194   -0.4704759878   -1.1713924734
 O    1.1609315135    0.2999922646   -1.9944782469
 C    0.7503009736   -1.9891680908   -1.2630294597
 C    1.4478014613   -2.5190442776   -2.4893062674
 C    0.8636568689   -2.2379274336   -3.8435768378
 N    2.5030595749   -3.1983064061   -2.2450545861
 O    3.1200157817   -3.6852730007   -3.4043990693
 H    1.0917122201    1.7718340194    0.1984893784
 H   -0.4982481608    1.8064940980   -0.5928969446
 H   -0.3878882791    1.4634662702    1.1644533964
 H    1.2351532486   -2.3832809325   -0.3660280587
 H   -0.2937325821   -2.3281670719   -1.2322695978
 H    0.9376021829   -1.1667958843   -4.0536964636
 H    1.3802675331   -2.7976429059   -4.6211636326
 H   -0.2008772844   -2.4995201243   -3.8573572056
 H    3.8690480335   -4.1700102022   -3.0428240096