15

 O    0.1898304136    1.2902505765    0.1220433610
 C    0.0450415852   -0.0884886816    0.0890704066
 C   -0.6166433193   -0.8294651791    1.2386835956
 C   -1.3325650162   -0.6643781272   -0.0862271871
 O   -2.3202972340    0.3260570667   -0.1719123006
 C   -1.5784708002   -1.8575304916   -0.9985215024
 C   -2.7844288133   -2.5870246437   -0.5991533130
 N   -3.7483876098   -3.1211193257   -0.2513393034
 H   -0.7014135731    1.6602575523    0.0547450769
 H    0.8774549173   -0.5738956372   -0.4129991685
 H   -0.2489665263   -1.8117505840    1.5164306337
 H   -0.9756861254   -0.2200279805    2.0611343475
 H   -3.0667542787    0.0731547444    0.3837448525
 H   -1.7001501392   -1.5126260430   -2.0314189935
 H   -0.7225181706   -2.5397776563   -0.9758941553