14

 N   -0.0912382588    1.2570873664    0.0196133143
 C    0.0239113471    0.0073421709    0.0441665967
 C    1.1191934038   -1.0745863618    0.0195432171
 O    1.5182781987   -1.4054424374    1.3403382798
 C    0.3119067492   -1.7469667117    2.0366634422
 C   -0.7091112198   -2.0545745259    0.9483046342
 C   -0.0387012060   -2.0283240823   -0.3508061207
 N   -1.0714264314   -0.9457482013   -0.0124962430
 H    0.8283946409    1.7015813325   -0.0047259373
 H    1.9979890994   -0.9552885270   -0.6121760338
 H    0.5054071657   -2.6220882616    2.6653008639
 H   -0.0116609031   -0.9145015635    2.6749673509
 H   -1.5450783647   -2.7116271559    1.1551731973
 H   -0.1570563208   -2.6918491213   -1.1956171615