16

 O   -0.2009827533    1.3138132761   -0.1050412968
 C   -0.0340738240   -0.0695420606   -0.0925860193
 C    0.9524562373   -0.7635397790   -0.9671574466
 C    0.5483275728   -2.0259718956   -1.1537822308
 C   -0.6675665110   -2.2669229041   -0.2899395847
 N   -0.1301011283   -2.2244587777    1.1561590047
 C   -0.5319521769   -0.8127256486    1.2131032101
 C   -1.3101378992   -0.8504593304   -0.0763195531
 O   -2.5326941358   -0.3992339630   -0.5062371177
 H    0.4130038009    1.7139163397    0.5189811018
 H    1.8678505026   -0.3064290552   -1.3229562851
 H    1.0864803268   -2.8092328695   -1.6711322092
 H   -1.2968352946   -3.1276033946   -0.5077603516
 H   -0.8035385061   -2.7362157177    1.7257990492
 H   -0.6212023832   -0.2628703060    2.1436944891
 H   -2.4135433079    0.5061851262   -0.8210211400