21

 O   -0.0804512402    1.2977956212   -0.4307540197
 C   -0.0838752180   -0.0797783773   -0.1016905342
 C    0.6875437743   -0.4521048355    1.1480979227
 C    0.0911195880   -1.4361936563    1.8176513638
 C   -1.1892182130   -1.8783261470    1.1446560301
 C   -1.4913530801   -0.7143993840    0.1595717674
 C   -2.4585006631    0.2746854788    0.7857898764
 C   -3.2206010521    1.2614161274   -0.0674813477
 C   -3.9446157988    0.1104664364    0.5827151249
 H   -0.6268276352    1.7532611201    0.2184328690
 H    0.3805775486   -0.5609838111   -0.9736287015
 H    1.6331348845    0.0177311972    1.3940768358
 H    0.4738584199   -1.9121208557    2.7142058852
 H   -1.0351942211   -2.8253882833    0.6090955253
 H   -2.0124294220   -2.0510748992    1.8473157160
 H   -1.9276994960   -1.0778412129   -0.7763562362
 H   -2.1588438959    0.6234835601    1.7723480951
 H   -3.3944984167    2.2607911297    0.3174333630
 H   -3.0588972761    1.2226128269   -1.1389216232
 H   -4.2791761954   -0.7028121627   -0.0533576793
 H   -4.6060721116    0.3225565471    1.4152822372