21

 C    0.2830600243    1.5841435961    0.0598704326
 C    0.0997714767    0.0648004367    0.0661806309
 C    0.6729106261   -0.6047518757   -1.1824603876
 C    0.4780642115   -2.1128476905   -1.2278849408
 O   -0.1809705316   -2.7057460721   -0.4034784022
 C    1.1916891118   -2.8392829857   -2.3556010179
 C    2.6330156974   -3.3211605664   -2.0076172057
 O    2.2691833441   -4.6945447621   -2.1996235316
 C    0.9015322443   -4.3431687671   -2.5101532104
 H    1.3426417633    1.8599067948    0.0110663371
 H   -0.2163218165    2.0432403420   -0.8009268829
 H   -0.1351743061    2.0350211597    0.9648043179
 H    0.5751738376   -0.3687683723    0.9529637373
 H   -0.9619153374   -0.1896844457    0.1475099612
 H    0.2144120803   -0.1904638919   -2.0935524080
 H    1.7468869228   -0.3921576530   -1.2915005240
 H    1.1464829880   -2.2551115626   -3.2773586120
 H    3.4159603483   -2.9937464019   -2.7024687929
 H    2.9583890014   -3.1174897998   -0.9788096461
 H    0.1970037314   -4.7323665355   -1.7687456901
 H    0.6136986624   -4.6715654871   -3.5151844346