18

 C    0.0059370727    1.5175980552    0.0331566756
 C    0.0108504749   -0.0114015966   -0.0134329495
 C   -1.4216783559   -0.5698979151   -0.0843150336
 C   -1.4601236309   -2.0251476862    0.0379824058
 N   -1.4888417195   -3.1735344409    0.1594071834
 O    0.6729929952   -0.5022499139   -1.1684383103
 C    2.0815596909   -0.6115216325   -1.0326577432
 C    2.6561706061   -1.1005543975   -2.2777380561
 C    3.1578191142   -1.4997572810   -3.2926252233
 H    1.0258605943    1.9111396486    0.0443806484
 H   -0.5055794708    1.9232216228   -0.8450259446
 H   -0.4993239164    1.8796311671    0.9340919635
 H    0.4970749290   -0.4086399074    0.8910145080
 H   -2.0352214393   -0.1314136739    0.7095729083
 H   -1.8636865526   -0.2785048538   -1.0433805345
 H    2.5326018463    0.3617415599   -0.7823013751
 H    2.3296927819   -1.3018935676   -0.2100951888
 H    3.5940403098   -1.8590338274   -4.1918587738