16

 C   -0.1251099991    1.3608638137   -0.3091479420
 N   -0.0267979549    0.0262617882    0.2447464785
 C   -1.0361363855   -1.0293452283    0.2240546256
 C   -0.9389644290   -1.8431041029   -1.0242022581
 C    0.0752362854   -2.0757007320    0.1162783695
 C    0.2470726258   -3.3156255301    0.7813389027
 C    0.4188497134   -4.3665542325    1.3410129490
 C    1.0346216408   -0.8658992785    0.0893342956
 O    2.2115511218   -0.6930396079   -0.0453388757
 H    0.8885701444    1.7597933281   -0.3923402285
 H   -0.5896163344    1.3633984227   -1.3047400206
 H   -0.7052380038    2.0136515318    0.3499623988
 H   -1.8688853339   -1.0282826682    0.9147277735
 H   -1.6551522645   -2.6500912258   -1.1460806155
 H   -0.6021893863   -1.3825194379   -1.9482676837
 H    0.5746492997   -5.2906889704    1.8399667309