21

 C    0.0082904307    1.3550336106    0.0995520921
 O   -0.0147948784   -0.0514628091    0.0722128483
 C   -1.3195652468   -0.5810364998   -0.0470077258
 C   -1.2170898419   -2.0987383614   -0.0464699440
 C   -0.5809885026   -2.6585453547    1.2504993613
 O   -1.1502801341   -3.9491846597    1.4712064078
 C   -2.4076592713   -3.9815039299    0.8509957457
 C   -3.3948792863   -2.8838309774    1.1493551476
 C   -2.5445866752   -2.8413368479   -0.1152436432
 H    1.0521778467    1.6650655713    0.1906416349
 H   -0.4120411134    1.7883599816   -0.8220807368
 H   -0.5581246555    1.7574879717    0.9545985727
 H   -1.9509783459   -0.2410190467    0.7922261597
 H   -1.7967465360   -0.2247156384   -0.9758466524
 H   -0.6105768065   -2.3992994889   -0.9089714895
 H    0.5028317722   -2.7725157824    1.1879745759
 H   -0.7992197118   -1.9922636904    2.0980276923
 H   -2.7385169559   -4.9935825957    0.6505645465
 H   -4.4471446615   -3.1151177911    1.0232105666
 H   -3.1868786697   -2.1945129448    1.9604769724
 H   -3.0272123369   -2.9599309170   -1.0783041120