18

 C   -0.0135406902    1.4595917429    0.0992969998
 C   -0.0351678374   -0.0520284707   -0.0446675346
 O   -1.3794248401   -0.4883214251    0.0314941778
 C   -1.5190186201   -1.8681504649   -0.0954800354
 C   -2.9979037107   -2.2538188908   -0.0778517746
 O   -3.8869690796   -1.4588326082   -0.2133918589
 C   -3.2398192317   -3.7492766925    0.1254557840
 O   -4.5789831408   -4.0515151653   -0.1602118941
 H    1.0135061335    1.8322762537    0.0426682764
 H   -0.5998925455    1.9272586508   -0.6961981207
 H   -0.4409587993    1.7585954507    1.0602821523
 H    0.4076064173   -0.3582991384   -1.0078439111
 H    0.5647787036   -0.5274623360    0.7502573087
 H   -1.0913991476   -2.2383988148   -1.0474716812
 H   -0.9884366255   -2.4146655574    0.7070150586
 H   -2.5291980419   -4.3087385243   -0.5085623686
 H   -2.9662190440   -3.9763082061    1.1716607818
 H   -4.7248030701   -4.9805708835    0.0398485200