21

 C   -0.3312831938    1.5672571232    0.1028958524
 C    0.2404961338    0.1645234351    0.0362913747
 C    1.1339243342   -0.1355158701   -1.1848485138
 O    2.1709020879   -0.9642615122   -0.6725768957
 C    1.9559866828   -1.1170849076    0.7279535558
 C    3.2704309950   -1.0872146950    1.4817233517
 C    4.2087874485   -2.2095120563    1.0569037450
 O    5.3620060134   -2.1364750200    1.8826529123
 O    1.1367404050   -0.0468262118    1.1233543800
 H    0.4735537040    2.3076144122    0.0731754056
 H   -1.0038336946    1.7454610191   -0.7420782025
 H   -0.8986624616    1.7081801314    1.0266183576
 H   -0.5725477944   -0.5786605708    0.0866197868
 H    0.5891401534   -0.6535794577   -1.9829693538
 H    1.5719078650    0.7830195390   -1.5973593662
 H    1.4246951524   -2.0746718879    0.8971595987
 H    3.7479895045   -0.1175107826    1.3125001973
 H    3.0616090608   -1.1773635230    2.5529414391
 H    3.7015646732   -3.1827639466    1.1681862738
 H    4.4627925175   -2.0915416778   -0.0057782175
 H    5.9890488227   -2.7984232206    1.5777186890