17

 C    0.0679018894    1.5986559993    0.0243380628
 C    0.0350231107    0.0631374682   -0.0093978776
 N    0.7438078678   -0.4904718646   -1.1722838599
 C    2.1085489613   -0.8092587662   -0.7353664244
 C    1.9777450376   -1.3070680957    0.7294678808
 C    3.1570862392   -1.1598167916    1.5618245136
 N    4.1136620995   -1.0270058575    2.1968245170
 C    0.7401979408   -0.5039273576    1.2376616985
 O    0.4126206137   -0.3574194138    2.3793488100
 H    1.0955685271    1.9738787013   -0.0002499898
 H   -0.4599053528    1.9974110203   -0.8448166315
 H   -0.4074711158    1.9634296592    0.9384857251
 H   -1.0080686100   -0.2689600299   -0.0044433724
 H    0.2840507795   -1.3409082210   -1.4784874726
 H    2.5649514867   -1.5478575574   -1.3953673977
 H    2.7306112942    0.0914671484   -0.7612557030
 H    1.6741991012   -2.3631464712    0.7282394212