22

 C   -1.5933832225   -0.3382837228    0.2395586446
 C   -0.1243082444    0.0750699826    0.1058774939
 C    0.7409877604   -0.3464115026    1.3039931388
 C    0.8414388970   -1.8831519010    1.5002044752
 C    2.2714587274   -2.1490262690    2.0293361401
 C    3.0151422321   -0.9041024705    1.6161214002
 C    2.2025255984    0.0795281455    1.2245196699
 C    2.6078575436    1.4637687285    0.8213087553
 H   -2.0441556408    0.0972944648    1.1387381517
 H   -2.1794415379   -0.0032346175   -0.6219770863
 H   -1.7004687651   -1.4255111314    0.3107343387
 H    0.3008053535   -0.3583403602   -0.8097351448
 H   -0.0704926922    1.1639936246   -0.0161536774
 H    0.2979112051    0.1167204012    2.2025247295
 H    0.0635476125   -2.2819620873    2.1562953234
 H    0.7211477123   -2.3701188700    0.5249343761
 H    2.2860586713   -2.2653434152    3.1230485970
 H    2.7055040126   -3.0693253024    1.6212856391
 H    4.0951084592   -0.8166789243    1.6856437819
 H    3.6902722138    1.6001872727    0.8958007761
 H    2.3095104620    1.6921048305   -0.2091425539
 H    2.1268561617    2.2192656238    1.4569292309