18

 C   -0.0277226022    1.4647009796    0.0587975370
 C    0.0074715622   -0.0319355970   -0.0288921420
 C   -0.6595819903   -0.9330511868   -1.0697570681
 N   -0.4616869034   -2.1085126246   -0.1229514218
 C   -0.2585353407   -1.0768280940    0.9953172883
 C    1.1936135170   -0.8902470646    0.5403567424
 C    2.3998013177   -0.3348334691    1.2356782933
 C    1.0282338755   -2.1986699798   -0.1536162906
 O    1.7302202454   -3.0939948979   -0.5047628320
 H    0.5715692563    1.9227323932   -0.7355298534
 H   -1.0567305604    1.8256733971   -0.0466882087
 H    0.3528233903    1.8282022509    1.0176765908
 H   -1.7267070001   -0.7213031467   -1.1843000735
 H   -0.1950297769   -1.0658809802   -2.0535508319
 H   -0.6820683667   -1.1326211896    1.9873313919
 H    2.1406985853    0.4992098916    1.8939327636
 H    2.8808798773   -1.1066900993    1.8440467801
 H    3.1377850737    0.0274270872    0.5124227947