18

 C   -0.4240313965    1.5859084344    0.2305653986
 C    0.0971515487    0.1599602854   -0.0297715451
 C    0.8367538861   -0.4437762866    1.1141423794
 C    2.1524182465   -0.7527506726    1.3120190892
 O    3.1635099176   -0.5865187406    0.4236832417
 N    2.3944028362   -1.2605439722    2.5658353285
 C    1.2140396322   -1.2816063097    3.1499811653
 N    0.9422494719   -1.8081495264    4.4116006938
 N    0.2398670759   -0.7940473232    2.3415632823
 H    0.4029059403    2.2644749862    0.4595134926
 H   -0.9577170239    1.9743397049   -0.6430460596
 H   -1.1156836056    1.6093894354    1.0800016944
 H   -0.7467207085   -0.4803542518   -0.3272910551
 H    0.7810341740    0.1718488883   -0.8843501642
 H    3.9604613364   -0.9000758364    0.8664921278
 H    0.4223057837   -1.1763512425    5.0097503702
 H    1.8102002844   -2.0669585664    4.8638430807
 H   -0.7483864093   -0.8374576463    2.5224030695