17

 O    0.2382272033    1.0932826645   -0.1450312153
 C   -0.1198091218   -0.2368998724    0.1627242487
 C   -1.6450818433   -0.4278453691    0.0938983208
 C   -2.3168811874    0.4632317708    1.1361912882
 O   -2.3669159290    0.1824588041    2.3044166353
 N   -2.0918718763   -0.0336540960   -1.2399801275
 C   -2.1645030521   -1.0874162148   -2.2501441416
 C   -3.4062507445   -0.5095548136   -1.6697640474
 H   -0.2550541647    1.3191237946   -0.9445682264
 H    0.3583268065   -0.9592272947   -0.5191543766
 H    0.2266032585   -0.4470634745    1.1786109587
 H   -1.8885813492   -1.4747638235    0.3439857444
 H   -2.7514916700    1.4042200819    0.7352744129
 H   -1.8437451268   -0.8073340226   -3.2488404613
 H   -1.8933740378   -2.0976678619   -1.9498189473
 H   -3.9699750990   -1.1332242873   -0.9784482346
 H   -4.0021167164    0.1986736545   -2.2371361111