20

 C   -0.0457961224    1.5574679535    0.0325835081
 C   -0.0409928255    0.0291345420   -0.0175030837
 C    0.7231364864   -0.5260801807   -1.2277133704
 N    2.1674992289   -0.2209824134   -1.1660635987
 C    2.7702033162   -1.3408396401   -1.2475992525
 N    1.9609995790   -2.4625728456   -1.3817091111
 C    0.6257806611   -2.0478385380   -1.3468456157
 N   -0.4361657479   -2.7370681870   -1.3949393772
 C   -0.3010691071   -4.1806789621   -1.5058880352
 H    0.9748234949    1.9481219305    0.0584281291
 H   -0.5439295538    1.9791248329   -0.8477074385
 H   -0.5759714443    1.9172453843    0.9196589778
 H    0.4117763135   -0.3774096935    0.8949420574
 H   -1.0604605747   -0.3677114488   -0.0684889664
 H    0.3149263721   -0.0677639061   -2.1386007262
 H    3.8491076493   -1.4617741750   -1.2254329706
 H    2.2778277432   -3.4163497298   -1.3848110099
 H    0.2484127736   -4.4811807915   -2.4120826392
 H    0.2213713804   -4.6194410525   -0.6406090344
 H   -1.2919579431   -4.6383848891   -1.5553501929