17

 C   -0.6085948491    1.3582884907   -0.5603433110
 N   -0.9543773300   -0.0479051391   -0.4732984781
 C   -0.9227434582   -0.7304518061    0.7018386883
 O   -0.6114355824   -0.2371810377    1.7707593453
 C   -1.2879303895   -2.2216033864    0.6184899378
 C   -2.3774170123   -2.6000917520   -0.4027817779
 O   -1.9819473855   -2.3989587754   -1.7583291774
 C   -2.8109761244   -3.9952042505   -0.2009855284
 N   -3.1143064821   -5.1004276652   -0.0545114580
 H    0.2973471300    1.5110190189   -1.1579355383
 H   -1.4234950043    1.9355002908   -1.0097425887
 H   -0.4285976370    1.7178627367    0.4530092391
 H   -1.1982773775   -0.5577043044   -1.3102122274
 H   -0.3797847685   -2.7978246938    0.3997642348
 H   -1.6086252718   -2.5115446955    1.6213458932
 H   -3.2489265422   -1.9515143065   -0.2644023573
 H   -1.2939500852   -3.0414543241   -1.9714755960