19

 C    0.1600831435    1.8054751077   -0.1630295448
 C   -0.0489321360    0.3101783763   -0.0509116335
 C    0.3420027570   -0.7046940673   -1.0703342616
 C    1.3347702265   -0.3514454582   -2.1683278556
 C    2.5952937991    0.1832722587   -1.4214821515
 C    2.3926231774   -0.2808555500    0.0648154246
 N    0.9990605732   -0.6864677756    0.2509741581
 C    3.8477656829   -0.2962331917   -1.9959866690
 N    4.8422451618   -0.6839201139   -2.4405595697
 H    0.8750340223    2.1054336372   -0.9307380300
 H   -0.7943379852    2.2807656962   -0.4111565637
 H    0.4918637771    2.2262300957    0.7928075030
 H   -0.9517857418    0.0723023431    0.5102718268
 H   -0.3217007817   -1.5421470160   -1.2703572395
 H    1.5832500255   -1.2517312496   -2.7356036750
 H    0.9525892290    0.3859344080   -2.8799404153
 H    2.6245475228    1.2741499563   -1.4667541260
 H    3.0210573915   -1.1514076141    0.2710492528
 H    2.6743080551    0.5059730173    0.7704156699