21

 O   -0.1894399422    1.4842477006   -0.1298731531
 C   -0.0139063168    0.1060146523    0.1651258052
 C   -1.3272954550   -0.5888779038   -0.1770918692
 C   -1.3363783288   -2.1093657848   -0.0835704367
 C   -0.3257927871   -2.9368910399   -0.8487391764
 C   -0.2477664760   -2.8674891462    0.6534662227
 C   -2.7030461472   -2.7270567001    0.0103731232
 O   -3.6495673770   -2.1370696697    0.9061105524
 C   -3.9342243946   -2.1068225382   -0.4965755105
 H    0.6088508991    1.9511106676    0.1332163052
 H    0.8177993021   -0.3166535326   -0.4221257153
 H    0.2254335219   -0.0426608481    1.2287668969
 H   -2.0985936567   -0.1963244671    0.4941214304
 H   -1.6022506257   -0.2806856011   -1.1934762828
 H   -0.6629293870   -3.8613562299   -1.3068445113
 H    0.4266417065   -2.4105834722   -1.4258719325
 H    0.5680119866   -2.3095488708    1.0971606929
 H   -0.5402339625   -3.7422025709    1.2249187543
 H   -2.6856737880   -3.8186112652    0.0575404538
 H   -3.8999150926   -1.1212502855   -0.9558263751
 H   -4.7611997189   -2.7383750443   -0.8190385139