20

 C   -1.4029545653    0.9448675012   -0.2284299986
 C   -0.0911206805    0.3454416050    0.2010812371
 C   -0.0125319653   -0.3435881709    1.5452727750
 C    1.3772926374   -0.7602775347    1.9886515266
 O    2.0137351878   -1.6656877534    1.1338582146
 C    2.2423358121    0.2250294552    2.7389966298
 C    1.6490661103   -0.9805537496    3.4444080050
 N    0.9651158711    0.3727476088   -0.5187926963
 O    0.7583397668    1.0372410904   -1.7373557496
 H   -1.3272132797    2.0372448655   -0.2668064191
 H   -1.6638071320    0.6137710007   -1.2374410486
 H   -2.2046146641    0.6747577907    0.4617478000
 H   -0.4563210868    0.3237543116    2.2955242553
 H   -0.6671602899   -1.2273883649    1.5074209498
 H    2.1009677986   -1.1937879426    0.2921513174
 H    3.3034424963    0.1994317284    2.5204835562
 H    1.8460535224    1.2085259794    2.9694309360
 H    0.8460883484   -0.8236079251    4.1570553883
 H    2.3191933529   -1.7974728148    3.6854299355
 H    1.6221326097    0.9719902388   -2.1578169943