18

 C   -0.1712094084    1.5743639348    0.0108568780
 C    0.0276905645    0.0532522769   -0.0239257804
 C    0.8566198992   -0.4573509981   -1.1873728566
 C    1.8294678567   -1.2845129725   -0.7952942978
 C    1.8660121499   -1.4220205219    0.6889813807
 C    2.1886549525   -0.1359401118    1.4488340669
 C    0.7570907303   -0.5314582869    1.1957568131
 O   -0.0234144263   -0.9542725571    2.2744894799
 H    0.7870958596    2.1006674869    0.0615899704
 H   -0.6990992172    1.9248173165   -0.8820350396
 H   -0.7675769144    1.8693269990    0.8817311852
 H   -0.9676497557   -0.4156004931   -0.0522252968
 H    0.6537559787   -0.1645060567   -2.2119463277
 H    2.5344762965   -1.7833349182   -1.4508888564
 H    2.0936123648   -2.3686841605    1.1651637639
 H    2.5277847182   -0.2575745660    2.4726410812
 H    2.6395909315    0.6848244337    0.9008797028
 H   -0.2056684804   -0.1875757550    2.8285883733