16

 C   -0.0943407044    1.4324195871   -0.0197052005
 C    0.0583846003   -0.0643948217   -0.1144162001
 C    0.8267301101   -0.6945611909   -1.2005100811
 N    1.4347391576   -0.5717493190    0.2062835837
 C    1.3272628419   -2.0216949659    0.3407301930
 O    1.6778184496   -2.7294533026    1.2288718785
 C    0.7656412495   -2.2040154272   -1.0718587594
 C   -0.0941198781   -3.2295799355   -1.6711683743
 O    1.2949089931   -3.1170444129   -2.0025371681
 H    0.7756369907    1.9386302262   -0.4448754416
 H   -0.9901036340    1.7566369248   -0.5594047873
 H   -0.1919205195    1.7403551852    1.0251835736
 H   -0.7719427178   -0.6353776961    0.3005411777
 H    1.2677710196   -0.1583421442   -2.0314851572
 H   -0.3625257828   -4.1083724613   -1.0881648925
 H   -0.7876919657   -2.9431057261   -2.4598446845