23

 C    0.1181315724    1.5205260696   -0.3223184691
 C    0.0377129223    0.0374967210   -0.0311995974
 C    1.2819088609   -0.8176073290    0.0319391016
 C    0.4689295039   -0.5717549385    1.2845740230
 C    1.0297780778    0.2431111488    2.4316060626
 C    1.8907444145   -0.6018613146    3.3738623878
 C    2.5335138623    0.1926413101    4.5033731395
 C    3.2831018536   -0.6149598170    5.5502558736
 O    2.4559604307    1.3986826978    4.5652349667
 H    1.0169232547    1.9749978948    0.1033470854
 H    0.1423921639    1.7007613585   -1.4028431074
 H   -0.7474343163    2.0562258048    0.0836568148
 H   -0.8264256421   -0.4434386345   -0.4836603553
 H    1.2718321811   -1.8022121368   -0.4231717388
 H    2.2366340194   -0.3045094131   -0.0467751711
 H   -0.1381005810   -1.4143690057    1.6114047934
 H    1.6345087452    1.0761911486    2.0625716839
 H    0.2157892068    0.7012860262    3.0063297061
 H    1.3097283323   -1.4246570399    3.8139399573
 H    2.6981930339   -1.0973476437    2.8148965059
 H    4.0164878139   -1.2787645573    5.0795871252
 H    3.7835958901    0.0562022197    6.2492522482
 H    2.5832324797   -1.2553469196    6.0997428740