19

 C   -0.0754142011    1.3447187552    0.1201366770
 O    0.0293837119   -0.0503845066   -0.0438671078
 C    0.6969544638   -0.5289662667   -1.2185078087
 C   -0.0405032101   -0.1171391939   -2.4997692416
 C    2.1677703044   -0.0925642158   -1.2552468651
 C    0.6073144282   -2.0521706376   -1.0292987849
 O    1.2343851692   -2.6902185898   -2.1317936748
 H    0.9038634109    1.8385766499    0.1911770882
 H   -0.6476152203    1.8255699928   -0.6857088493
 H   -0.6085651718    1.5058013213    1.0609783775
 H    0.0783113914    0.9483017090   -2.7162125053
 H    0.3554060394   -0.6820163034   -3.3467569233
 H   -1.1090254834   -0.3357069548   -2.4064893336
 H    2.6442221978   -0.2909536456   -0.2899359506
 H    2.6973761463   -0.6584043628   -2.0249978256
 H    2.2736145990    0.9720002198   -1.4825198604
 H    1.0953646244   -2.3113210381   -0.0786213310
 H   -0.4540187089   -2.3284655017   -0.9498183180
 H    1.1720876489   -3.6402708013   -2.0032317928