20

 C    0.1506770096    1.6238124912   -0.2879832623
 C    0.1417340979    0.1007064002   -0.2387996282
 C    1.4198504233   -0.5922042324   -0.7799695823
 N    1.8050288102   -1.0974796246    0.5944175420
 C    0.5395225620   -0.4856923031    1.1202240618
 C    0.7147214668   -1.9689967249    1.1230144566
 C   -0.1211195933   -2.9376894426    0.3399632422
 C   -0.4881275881   -4.2044058649    1.0947632915
 O   -0.4917555378   -2.7521332642   -0.8013242396
 H    1.0776209867    2.0313308358    0.1311419662
 H    0.0642545346    1.9779038015   -1.3204868933
 H   -0.6871196819    2.0436943680    0.2795544875
 H   -0.7922291258   -0.2924745843   -0.6448784399
 H    1.2897874264   -1.3701991970   -1.5302538570
 H    2.1896877850    0.1144768104   -1.1000812822
 H    0.5127651532    0.0532530427    2.0647793144
 H    1.0221305488   -2.3638306452    2.0885611011
 H   -0.9701589453   -3.9611183172    2.0485562865
 H   -1.1554100679   -4.8150510966    0.4860467257
 H    0.4176692956   -4.7742317131    1.3335144495