23

 C   -0.0720257403    1.5408780662   -0.0028637805
 C   -0.0648400914    0.0202018094    0.0568226958
 C   -1.3228991987   -0.5649799730   -0.5574920438
 O   -1.3702041931   -0.1644912152   -1.9252344700
 C    1.2367348327   -0.7181211155   -0.1650144688
 C    0.6342905862   -0.6830210089    1.2221637475
 C    1.3102959392    0.1504756112    2.3012275895
 C    0.0833007511   -1.9793916241    1.7864035540
 O    1.1758719766   -2.7254759473    2.3183816668
 H    0.8931477308    1.9754368592    0.2613413646
 H   -0.3191404073    1.8607529454   -1.0181247790
 H   -0.8259448809    1.9609963518    0.6745864738
 H   -1.3297700635   -1.6597803518   -0.4873639010
 H   -2.2075400985   -0.1921004325   -0.0144132112
 H   -2.2192739544   -0.4373468820   -2.2846442880
 H    1.2035543211   -1.6557125046   -0.7108979341
 H    2.1329675297   -0.1344802407   -0.3504931847
 H    1.8712940629    0.9916330309    1.8914192933
 H    0.5761134576    0.5509110183    3.0114802178
 H    2.0071187315   -0.4793262102    2.8597344007
 H   -0.6532057298   -1.7553830079    2.5763023734
 H   -0.4294360855   -2.5654578306    1.0136300925
 H    0.8168832539   -3.4912168282    2.7758897514