15

 C   -0.0346868087    1.4817987284   -0.0037415208
 C    0.0218808761   -0.0249028609    0.0438046504
 N    0.0922409565   -0.7159114859    1.1312150180
 O    0.1086263596    0.1132986473    2.2446147813
 C   -0.0017587954   -0.7676344266   -1.1682381518
 C   -0.0255849243   -1.3366518442   -2.2336220434
 C   -0.0568906726   -1.9756603384   -3.5407804786
 N   -0.0055543900   -3.3377880887   -3.4862767430
 O   -0.1230741287   -1.3444010149   -4.5782975902
 H    0.8504858049    1.9054143465    0.4808556509
 H   -0.0904303576    1.8360619504   -1.0325367953
 H   -0.9047781545    1.8418206519    0.5540555446
 H    0.1617616999   -0.5162029109    2.9725716885
 H    0.0512517189   -3.8302218399   -2.6122078082
 H   -0.0210521640   -3.8521182342   -4.3515062123