17

 O   -0.0287934996    0.0034217789    0.1755171809
 C    0.0256489841    1.2113931551    0.0841768739
 C    1.2634434027    1.9769762442   -0.0310192773
 C    1.3569300689    3.3204787389   -0.0816023473
 C    2.8085750797    3.7133758487   -0.0586745708
 C    3.3474461889    3.3355783988    1.3867729264
 C    3.7222732762    1.9652972299    0.8423872741
 C    3.5773590527    2.4481495710   -0.5816905189
 C    2.6307506006    1.3864619366   -0.0903223351
 H   -0.9001757548    1.8295606950    0.0708994934
 H    0.5316977149    4.0182123055    0.0075614579
 H    3.0623405670    4.7046831105   -0.4283929659
 H    4.2453184453    3.9159559950    1.6116774001
 H    2.6407898905    3.4092202125    2.2200437624
 H    4.4611200888    1.2958077597    1.2651433967
 H    4.2389425207    2.3731801151   -1.4356409500
 H    2.7646893633    0.3521978948   -0.3790769205