15

 C   -0.0684862721    1.5670760036    0.0097695657
 C    1.4507011502    1.2848942333   -0.0053819976
 C    1.2481996016    0.1078255388    1.0217623639
 C    2.2320209758   -0.9877110436    0.6430180120
 C    2.2200370617   -0.9805063073   -0.6921955683
 C    1.2296884559    0.1189632855   -1.0413760697
 C    0.0516673608    0.0265367909    0.0003750432
 H   -0.4757327065    2.0240001759    0.9166577189
 H   -0.4918871229    2.0337174659   -0.8846883245
 H    2.2734052929    2.0059015504   -0.0088725744
 H    1.0477686633    0.3354574736    2.0698952493
 H    2.7937127365   -1.6090733563    1.3264608068
 H    2.7693179825   -1.5943959244   -1.3922763204
 H    1.0105042714    0.3578846593   -2.0832237177
 H   -0.7521673811   -0.7154503655    0.0035830629