18

 C    0.1222324775    1.2146006010    0.3092634338
 C    1.4315638226    1.8847355244   -0.1278487679
 C    2.2439162617    0.6932328430   -0.6615658112
 C    3.0753800661   -0.0708306044    0.3882348151
 O    2.9217689875   -1.4465567560    0.0783936768
 C    1.5642215402   -1.6225154978   -0.2959055978
 C    1.1486932529   -0.3401228603   -1.0581108854
 O   -0.1088411503    0.1875446349   -0.6483171557
 H    0.2176173835    0.7935992925    1.3232117636
 H   -0.7438209967    1.8818674912    0.3013397033
 H    1.2364901205    2.6052751060   -0.9273636760
 H    1.9309677050    2.4123317204    0.6901934357
 H    2.8691432334    0.9640186974   -1.5138455186
 H    4.1425328058    0.1630383021    0.3610464940
 H    2.7028857845    0.1430813513    1.4051649148
 H    1.4989129297   -2.5334114751   -0.8957633182
 H    0.9111894667   -1.7341235662    0.5847509004
 H    1.0858830394   -0.5146370045   -2.1352732367