14

 C   -0.1930488356    1.4290802300   -0.0852950631
 C    0.2381818554   -0.0099605414   -0.0099145494
 O    1.1389388573   -0.4643887728    0.6305294778
 O   -0.5831945385   -0.7786676959   -0.8124506151
 C   -0.2861249363   -2.1029220514   -0.9076096423
 N   -0.9478036880   -3.0020019605   -0.2058185920
 N   -0.3841167703   -4.1491655202   -0.6577964034
 C    0.5579549311   -3.8797484210   -1.5817813329
 N    0.6448991210   -2.5765436884   -1.7701613492
 H    0.4252849795    2.0279060630    0.5817085628
 H   -0.0944416297    1.7899293114   -1.1131046714
 H   -1.2468418189    1.5183889017    0.1920544093
 H   -0.6942792350   -5.0346580355   -0.2928538583
 H    1.1380140281   -4.6412265591   -2.0805866627