16

 C    0.1451244444    1.5357423547   -0.1263617800
 C    0.0363043707    0.0482301327   -0.0248580667
 N    0.0485477415   -0.6910929672   -1.1089968588
 O   -0.0650401995   -2.0097992074   -0.6768102372
 C   -0.1432936260   -2.0212232988    0.6598421340
 C   -0.0909567564   -0.7564542210    1.1532177880
 C   -0.1411114153   -0.3298728226    2.5650895556
 C   -1.3363637827   -0.5319115838    3.4078457369
 O   -0.1938889584   -1.3772493943    3.5354826378
 H    1.0214350541    1.9043966227    0.4178590567
 H    0.2363474458    1.8317573772   -1.1728315860
 H   -0.7359874213    2.0258199793    0.3010074162
 H   -0.2196309330   -2.9870171803    1.1332009126
 H    0.5207495787    0.4949263748    2.8330389165
 H   -1.5220888122    0.1330637991    4.2502107347
 H   -2.2161760605   -0.9978290749    2.9678466596