15

 C    0.1048347304    1.1629561765    0.2695623002
 O   -0.1497267825   -0.2174860840    0.0153612358
 C    0.6197784188   -0.7937737711   -0.9129525263
 N    0.4723775891   -2.0136384088   -1.1988826504
 C    1.3478245272   -2.5670722805   -2.1907735655
 C    2.4583563998   -3.4065207558   -1.5709899819
 O    2.7793623263   -3.3966322365   -0.4137420564
 C    3.1835519550   -4.2501377265   -2.5502257276
 N    3.7446373545   -4.8944859741   -3.3294463689
 H    1.1161475043    1.3136284384    0.6635381940
 H   -0.0309165548    1.7665549812   -0.6351697701
 H   -0.6226743323    1.4722695446    1.0198764113
 H    1.3526070979   -0.1219380894   -1.3886594366
 H    0.7867989469   -3.2116107809   -2.8802034754
 H    1.8628812294   -1.8197438230   -2.8268306623