18

 C    0.4763282151    0.8983860192   -0.6046533096
 N   -0.3471446841    0.1649369652    0.3659287294
 C    0.3526366484   -0.4855175978    1.3930448085
 C    0.6583438135   -0.1853344472    2.6899872805
 N    1.3423239194   -1.2331463156    3.2972751680
 C    1.4532565119   -2.1369674790    2.3632105619
 N    0.8837306635   -1.7602324759    1.1859319069
 O    2.0473766284   -3.3360510376    2.4379038243
 C    2.6208802618   -3.6342754116    3.7110438188
 H    1.1439645612    0.1995471595   -1.1170784897
 H   -0.1758792058    1.3506838821   -1.3572601575
 H    1.0966780275    1.6851353289   -0.1494625091
 H   -1.0522304170    0.7732874443    0.7620246569
 H    0.4230004905    0.7172693818    3.2333620684
 H    0.7680367390   -2.3274694353    0.3634784069
 H    3.3909882494   -2.9018418595    3.9705967579
 H    1.8554543300   -3.6261759576    4.4926617102
 H    3.0571765574   -4.6290770741    3.6141107571