16

 O   -0.0306973266   -0.0125544928    0.1488270636
 C    0.0165684031    1.1966351320    0.0920055395
 C    1.2500725868    1.9699013498   -0.0404735774
 C    1.3479887970    3.3163232888   -0.0452748643
 C    2.7976594996    3.6966271428   -0.0429335404
 C    3.3493126048    3.1818567263    1.3449597806
 N    3.7273582597    1.8636716684    0.7738509630
 C    3.5427484758    2.4392794080   -0.5935655606
 C    2.6088821334    1.3796156597   -0.1564973295
 H   -0.9097678390    1.8128887472    0.1252805937
 H    0.5332539234    4.0136052164    0.1159186241
 H    3.0636618703    4.7020585904   -0.3606229008
 H    4.2715653063    3.6981327129    1.6194950393
 H    2.6577694037    3.1625535720    2.1932403610
 H    4.2906071063    2.3785704798   -1.3772498749
 H    2.7432103255    0.3400981881   -0.4223241668