17

 C   -0.2474255188    1.5351881116    0.0535151605
 C    0.0731557358    0.0619548780   -0.0059874142
 C   -0.7025349658   -0.9322236508    0.8499365976
 C    0.7678912585   -0.6895163962    1.0947656961
 O    1.6990878580   -1.6017152981    0.5748840261
 C    1.3985586868   -1.7887531079   -0.8090143606
 C    0.6781428811   -0.5086122967   -1.2850078474
 H    0.6218798491    2.1419472337   -0.2264912243
 H   -1.0668874897    1.7948940905   -0.6272907207
 H   -0.5533870890    1.8345069890    1.0611664292
 H   -1.3985768704   -0.5157138875    1.5710321122
 H   -1.0177508950   -1.8800004229    0.4258876780
 H    1.1151106407   -0.2338709940    2.0152032902
 H    2.3382299299   -1.9824396773   -1.3336366385
 H    0.7548318481   -2.6699058370   -0.9391856857
 H   -0.0586956969   -0.7246128588   -2.0654333721
 H    1.3933668273    0.2148175743   -1.6933639666