16

 N   -0.0400284812    1.4084760879    0.0436087590
 C    0.0464358822    0.0263571599   -0.0024155513
 N   -1.0640005395   -0.7011256227   -0.0121144271
 O   -0.6210215098   -2.0739814802    0.0477222255
 C    0.6982175979   -2.0334235656    0.0515646964
 C    1.2130209898   -0.7807171430    0.0059316517
 C    2.7093466007   -0.8715132210    0.1271013090
 C    2.9219011220   -2.4127141163   -0.1014791754
 N    1.6088618847   -3.0577263744    0.2024914109
 H    0.6662351756    1.8824376324   -0.5011696734
 H   -0.9683516181    1.7456766026   -0.1768021022
 H    3.2792894321   -0.2918151295   -0.6057686414
 H    3.0657150093   -0.5735492275    1.1214440991
 H    3.2013293333   -2.5964580142   -1.1467469267
 H    3.7023405089   -2.8273452520    0.5402767185
 H    1.4192194921   -3.9207030964   -0.2901091225