25

 C   -0.2779086900    1.5514944423    0.2722827720
 C    0.0723298680    0.0970364377   -0.0697325205
 C    0.7971394343   -0.5997694210    1.0650199435
 C    0.0364959778   -1.4099991876    2.1002231559
 O   -1.3346763876   -1.6435454863    1.9281277546
 C    0.9775376907   -2.1123710717    1.1544920119
 C    0.3998045769   -2.9991346434    0.0662584257
 C    2.2989749611   -2.5938030233    1.7466376907
 C    2.2194944848   -3.9402315018    2.4773761974
 H    0.6213165281    2.1328377770    0.5041942112
 H   -0.7888362192    2.0443837355   -0.5608022378
 H   -0.9357148837    1.6074019870    1.1473079264
 H   -0.8450002948   -0.4455715404   -0.3148097174
 H    0.6946823266    0.0781432132   -0.9735623779
 H    1.6325431516   -0.0222132628    1.4591951384
 H    0.3457293595   -1.3268388698    3.1432876901
 H   -1.8048016363   -0.8328892010    2.1498946170
 H   -0.5867030568   -2.6638225182   -0.2531722727
 H    1.0609196970   -3.0180753360   -0.8082224510
 H    0.2880218277   -4.0290710016    0.4196606811
 H    3.0474924193   -2.6540134093    0.9444493032
 H    2.6700046665   -1.8341284617    2.4458705709
 H    1.9600128501   -4.7589107499    1.7997715524
 H    3.1811223170   -4.1886728053    2.9375053524
 H    1.4644132816   -3.9134074715    3.2703269526