19

 C    0.5283980621    1.5186991767    0.4893363752
 O    1.2537443137    2.0252892160   -0.6195763957
 C    2.0587903031    0.9602041565   -1.1108468310
 C    1.2736528135   -0.3499850838   -0.8455461575
 C    2.0119122428   -1.3864494409   -0.0196578914
 O    2.4076430857   -0.8864640715    1.2681839409
 C    1.2407057330   -1.7172856524    1.1862135432
 C   -0.0609540073   -0.9404244778    1.1949988756
 C    0.0852871042    0.1067397881    0.0653881821
 H    1.1619894952    1.4655266718    1.3868561266
 H   -0.3035289150    2.2021720211    0.6811267395
 H    2.2421979636    1.1483307415   -2.1720510071
 H    3.0247720877    0.9352673213   -0.5860713739
 H    0.9232724122   -0.8041965196   -1.7769709222
 H    2.7117306058   -2.0792340682   -0.4815721815
 H    1.3204139817   -2.6739510171    1.6978126370
 H   -0.8894520698   -1.6288527129    0.9936883302
 H   -0.2551062446   -0.4795225411    2.1700359803
 H   -0.8352719076    0.1860374122   -0.5170476401