20

 C    0.0239121901    1.6220619976   -0.0773307946
 C    0.0721302467    0.1062476593    0.0370439272
 C    1.0360612856   -0.7069606512   -0.8757160305
 C    1.3034596283   -1.6584986538    0.3215661250
 C    2.7220548172   -2.1710916143    0.5846879305
 C    3.2278941415   -2.9912742379   -0.5137225031
 N    3.6095051636   -3.6343040772   -1.3951366438
 C    0.7517858356   -0.5529209023    1.2809641260
 O    1.7433180839    0.2238356756    1.9238695889
 H    1.0161028849    2.0776805933    0.0227271842
 H   -0.3674037236    1.9210322677   -1.0552317889
 H   -0.6178739513    2.0612303756    0.6930605933
 H   -0.9414470799   -0.2988525021   -0.0533128130
 H    0.6304095455   -1.1447640117   -1.7893922482
 H    1.9274995679   -0.1277465470   -1.1446635417
 H    0.6090545009   -2.5034271500    0.2940555199
 H    3.4038879582   -1.3289798212    0.7429033859
 H    2.7482210387   -2.7620049345    1.5076297904
 H    0.0917181693   -0.8965929781    2.0813684054
 H    2.1891976867    0.7732001420    1.2710044375