12

 O    0.0285138782    1.3291620963    0.0081953049
 C   -0.0257063566   -0.0093475477    0.0009717826
 C   -1.2024625104   -0.6779327016    0.0037316416
 C   -1.2028234374   -2.1146917600   -0.0043878902
 N   -2.2165924314   -2.8703227671   -0.0029914207
 O    0.1039030451   -2.6949603908   -0.0148850976
 C    1.1832082175   -1.9156188899   -0.0164327089
 N    1.2116984711   -0.6371326491   -0.0094316325
 H    0.9648841160    1.5698444747    0.0043448973
 H   -2.1545683580   -0.1678814393    0.0118919123
 H   -1.9489424514   -3.8532292062   -0.0100110272
 H    2.1010220873   -2.4968486193   -0.0248817216