14

 C   -0.0524576163    1.5059734172    0.0975275732
 N    0.1568392398    0.0739869282   -0.0409980823
 C    0.6647606999   -0.6781681706    0.9659813220
 C    0.6953679127   -2.0532135731    1.1046858306
 O    1.3751655941   -2.3257376938    2.2867754014
 C    1.6902924066   -1.1220788076    2.7662174937
 N    1.3070885727   -0.1092085538    2.0514354784
 C    0.1952754423   -3.0928657627    0.3180403552
 N   -0.2476868904   -3.9111000144   -0.3781773031
 H    0.8341596763    1.9601504082    0.5417488295
 H   -0.2078111708    1.9343532111   -0.8948510377
 H   -0.9171574597    1.7518594581    0.7288081966
 H   -0.4272345001   -0.4138408684   -0.7015574083
 H    2.2307199729   -1.0956050183    3.7001808606