17

 O    0.0114984057    1.4629237455   -0.0091268941
 C    0.0758908716    0.0544649131   -0.0224634031
 C    0.5020302430   -0.5953426647    1.3249473731
 C   -0.8096047601   -1.3214920902    1.6716727735
 C   -0.5915198958   -2.7413469584    2.2685011872
 O   -0.3493660387   -3.1744718288    0.8616690059
 C   -1.2417698054   -2.0444300821    0.4790030983
 C   -1.3160389455   -0.5745851571   -0.0877518919
 O   -1.8242996174   -0.2531814498    1.3031384895
 H   -0.6285263272    1.6889070156    0.6788902519
 H    0.7154395818   -0.2213235037   -0.8636855229
 H    1.3400248364   -1.2864956388    1.2229104548
 H    0.7491250824    0.1644042705    2.0708996543
 H    0.2871073460   -2.9095908287    2.8956476385
 H   -1.4821903116   -3.2278828990    2.6771501277
 H   -2.2695087177   -2.4127741722    0.5389916346
 H   -2.0146703075   -0.2677012710   -0.8662263572