21

 C   -0.0003436431    1.6404116703   -0.0402744233
 C    0.0343464368    0.1223669453    0.0166332475
 C    1.0150686242   -0.6961652203   -0.9339237401
 C    1.1295182164   -1.7449150399    0.2231851182
 C    2.2230308509   -2.4220389991    1.0905552987
 C    2.0001833801   -1.4987460920    2.3485405501
 C    2.1399304276   -0.1093673714    1.7148422196
 C    0.7867209336   -0.5967472703    1.1488910867
 O    0.5418288377   -1.2517849308    2.4383449122
 H    1.0013133815    2.0658457039    0.0821450755
 H   -0.3947821598    1.9880260895   -1.0010124607
 H   -0.6388778770    2.0502750997    0.7495839932
 H   -0.9729766058   -0.2942608603   -0.0923739964
 H    0.6005249476   -1.0448281511   -1.8813028507
 H    1.9351554318   -0.1389574764   -1.1275155849
 H    0.2593195278   -2.4025733241    0.1475446031
 H    2.0073402102   -3.4752424099    1.2815456158
 H    3.2528265624   -2.3392948022    0.7320787184
 H    2.4429005853   -1.7825297809    3.3028576004
 H    1.9979643788    0.6949227032    2.4374670736
 H    2.9796643428    0.0912189970    1.0445167330