17

 O   -0.0107227555    0.0140299990    0.0513637427
 C   -0.0220734481    1.2149480638    0.0239835504
 C   -1.2678633446    2.1248345783    0.0086064117
 C   -0.6465774462    3.5476187475    0.0160478009
 C    0.6200479755    3.3293958679   -0.8489146997
 C    1.1800765200    2.1627698378    0.0028328714
 C    1.2239691133    2.8105687254    1.4130799757
 C   -0.0247649971    3.7165040238    1.4048620128
 O   -0.4191714292    4.4032799565    2.3081146063
 H   -1.8309690270    1.9492207820   -0.9147411525
 H   -1.9340066644    1.9080154291    0.8478068537
 H   -1.3264364297    4.3516141888   -0.2595803048
 H    0.3870387785    3.0399354538   -1.8777359996
 H    1.2845804482    4.1980539388   -0.8685015604
 H    2.1055452649    1.6884344744   -0.3182609356
 H    1.2016978295    2.1033954433    2.2464016803
 H    2.1189850818    3.4316680398    1.5300453567