15

 C   -0.2604244208    1.6233240175   -0.0451368084
 C    0.1171686423    0.1331788197    0.0407838100
 C    0.8414022739   -0.3452018650   -1.1731417725
 C    2.1138107263   -0.8428481297   -1.3629108681
 C    3.1844895842   -1.0762692670   -0.3965087241
 O    4.2758126653   -1.5176567894   -0.6635212084
 N    2.2293567476   -1.1092621508   -2.7168933289
 N    1.1988180601   -0.8329229972   -3.3372235020
 O    0.2154177423   -0.3051956538   -2.3284397969
 H    0.6316908130    2.2501642955   -0.1293036669
 H   -0.8952596755    1.8135103820   -0.9135987073
 H   -0.8048714430    1.9214854396    0.8541639688
 H    0.7386431626   -0.0544602586    0.9203250732
 H   -0.7905888679   -0.4708578573    0.1541378464
 H    2.9081748697   -0.8055033354    0.6465035051