21

 C    0.0176069199    1.5379911448    0.1239699676
 C    0.1240567910    0.0257751724   -0.0650934659
 C    1.1013564390   -0.4762494683   -1.1697194490
 C    1.9803272165   -1.3912755567   -0.3090961416
 C    2.2741126130   -0.4491343779    0.9691188274
 C    0.7409689576   -0.7315289418    1.1481585741
 O   -0.2771709751   -1.1616971652    2.1073451410
 C   -0.4454482830   -2.3649096487    1.2531013448
 C    1.0042318226   -2.1267836134    0.7026584453
 H    0.9916740120    2.0051348882    0.3012528018
 H   -0.4166223358    2.0114798013   -0.7630496221
 H   -0.6276369745    1.7725854465    0.9772764862
 H   -0.8825345512   -0.3547528922   -0.2556054511
 H    0.5920140646   -1.0148184652   -1.9738316950
 H    1.6830017507    0.3330368640   -1.6237137545
 H    2.7988724767   -1.9258741280   -0.7923696180
 H    2.9025438558   -0.9396818417    1.7117469117
 H    2.6299831602    0.5647000585    0.7664473925
 H   -0.5733378569   -3.2628427397    1.8618056002
 H   -1.2897292469   -2.2471303414    0.5692195248
 H    1.6487352739   -2.6154455153    1.4378634196