19

 C   -0.0900882236    1.5272075540    0.0543659105
 C    0.1440795742    0.0520874721    0.0167222868
 O   -0.7616247997   -0.7964595740    0.7376576396
 C    0.6377613472   -0.9111070943    1.0189292228
 C    1.2725172964   -1.8085398523   -0.0811834222
 C    0.6072597745   -3.1085802018   -0.4197921624
 C   -0.2255698835   -2.9824997774   -1.4537974524
 C   -0.2681982540   -1.5844775355   -2.0372957627
 C    0.7177990034   -0.7942163505   -1.1483602424
 H    0.8037434542    2.0716107078   -0.2674577272
 H   -0.9120331117    1.8083492001   -0.6144395779
 H   -0.3523887966    1.8471289596    1.0664025147
 H    0.9450234591   -0.7735113503    2.0505942732
 H    2.3623298735   -1.8509715958    0.0063834689
 H    0.7713507691   -4.0239209137    0.1381729609
 H   -0.8342012051   -3.7854816342   -1.8577297917
 H    0.0267824009   -1.5786233324   -3.0941082416
 H   -1.2833813134   -1.1701477739   -1.9933346615
 H    1.4917813751   -0.2646639773   -1.7070546252