13

 O   -0.0208905840    0.0212485960    0.0314663450
 C    0.0135069492    1.2112022468    0.0127819226
 O   -1.0961474322    2.0257954981    0.0377424846
 C   -0.5530633779    3.3732132139    0.0486446345
 O    0.6073427637    3.2789313136   -0.7326185979
 C    1.2007654911    2.2020587954   -0.0008618757
 C    1.2085246755    2.7514336665    1.4462361919
 O    1.2795115351    4.1725507157    1.5109320618
 C   -0.0090401548    3.5640115002    1.4803256159
 H   -1.2760052533    4.0679473116   -0.3701075582
 H    2.1228646613    1.8538696292   -0.4554953363
 H    1.5984792237    2.1775662515    2.2785141352
 H   -0.6611244974    3.6850979814    2.3371791466