23

 C   -0.0125773889    1.5216507293    0.0007550262
 C   -0.1332572826    0.0083949386   -0.0757040086
 O    0.7052120541   -0.4511396531   -1.1179715740
 C    0.8107410957   -1.8616724119   -1.2371221137
 C   -0.4336756699   -2.5142972527   -1.8399739967
 C    2.0373860172   -2.0960243074   -2.1117022997
 C    3.4188305472   -1.8116751425   -1.4890757672
 C    3.6754109503   -3.3133760732   -1.7264609531
 O    2.3405965162   -3.5046245098   -2.2464950618
 H    1.0214714725    1.8150326992    0.2030474360
 H   -0.3182197938    1.9780369019   -0.9450680608
 H   -0.6499303704    1.9156852165    0.7981051027
 H    0.1667504475   -0.4521925836    0.8808019426
 H   -1.1805215022   -0.2787697790   -0.2568121367
 H    1.0091206237   -2.3035241923   -0.2450273262
 H   -0.2364602845   -3.5747711801   -2.0185945054
 H   -1.2978221246   -2.4346929121   -1.1747380808
 H   -0.6852912770   -2.0376363052   -2.7931534594
 H    1.8729491331   -1.6269603539   -3.0915996142
 H    4.0583187198   -1.1251558964   -2.0444549556
 H    3.3833202059   -1.5010362934   -0.4434455484
 H    4.4395829869   -3.5472694016   -2.4780206415
 H    3.8583508038   -3.9258819375   -0.8355097835