18

 C   -0.1643316349    1.5196914814    0.0340696009
 C   -0.0147846104    0.0052210932   -0.0048194266
 O   -1.2392748843   -0.6402736630   -0.2770601348
 C    1.2295812319   -0.5051210594   -0.7853808780
 O    1.9089462432   -0.8279081279    0.4500335973
 C    0.7102548748   -0.6081030839    1.1941077032
 C    0.7110188993   -0.2506555603    2.6398966724
 C    0.1764608454   -1.5994169717    2.1708395117
 H    0.7837050044    1.9977470973    0.2947642555
 H   -0.4766155200    1.9044148682   -0.9453236138
 H   -0.9153146686    1.8123555130    0.7746286452
 H   -1.7247041246   -0.1127535030   -0.9196334102
 H    1.0132725425   -1.3985985453   -1.3829097310
 H    1.7901396549    0.2244613626   -1.3801523334
 H    1.6732786122   -0.2408244959    3.1408385028
 H    0.0068755365    0.4952904371    2.9950976894
 H   -0.8946983979   -1.7679296017    2.1819735741
 H    0.7871554956   -2.4737472608    2.3682180951