17

 C    0.1228535563    1.5484571121   -0.1665811698
 O    1.4759219287    1.5476853506    0.3893493868
 C    1.4252839962    0.1184763717    0.5697442077
 C    0.7823649928   -0.3722813961    1.8840186493
 O   -0.5289102261   -0.4402214589    1.2418536523
 C    0.0306003397    0.0134933814   -0.0048116815
 C    0.1271354479   -0.9947974954   -1.1335687072
 O    1.3504007167   -1.7034290916   -0.8650752400
 C    2.2939459319   -0.7907262492   -0.2842223811
 H   -0.5784338443    2.1117100272    0.4555981769
 H    0.1140463325    1.9308389701   -1.1934562064
 H    1.1059137806   -1.3605986586    2.2288998012
 H    0.8073972063    0.3478400163    2.7075600896
 H   -0.6819716023   -1.7277629222   -1.1442234307
 H    0.1758388405   -0.4891603570   -2.1098107756
 H    2.8077448277   -0.1899776065   -1.0492679600
 H    3.0276067848   -1.3926671838    0.2573060682