16

 O   -0.0558541314    1.3677342454    0.1317222327
 N    0.0576938214   -0.0214636389    0.0949449246
 C   -1.0774954902   -0.6104685770   -0.0418093093
 C   -1.0752679452   -2.1185224740   -0.0765845508
 C   -2.0900156564   -2.6463310940   -1.1031443696
 C   -3.4684886617   -2.0167096163   -0.9342607649
 O   -4.4940755870   -2.6129487067   -1.1932925526
 C   -3.4866065519   -0.6045544688   -0.4865185538
 C   -2.3731027957    0.0571664261   -0.1208847377
 H    0.8565173056    1.6447753043    0.2675563194
 H   -0.0663363229   -2.4809232532   -0.2843011736
 H   -1.3544623049   -2.4879183172    0.9195988193
 H   -1.7502726196   -2.4010768464   -2.1189996911
 H   -2.1959530368   -3.7321268026   -1.0517704045
 H   -4.4584688011   -0.1209873957   -0.4972159811
 H   -2.4074160521    1.1083903051    0.1405187830