16

 C   -0.0662342646    1.5723609680   -0.1469651079
 C   -0.0456722990    0.0575264394    0.0623723492
 N   -1.3689796156   -0.5470199539    0.0020141430
 C   -2.1049134430   -0.8918926439    1.1339135147
 O   -1.7659275275   -0.8353203417    2.2845310255
 O   -3.3108259674   -1.3141147772    0.6722793240
 N   -3.3413226652   -1.2500844008   -0.7564533706
 C   -2.1790720020   -0.7740750268   -1.0800537573
 N   -1.8054049020   -0.4549024822   -2.3670807024
 H    0.9511383347    1.9697959397   -0.0854261269
 H   -0.4802857244    1.8300459661   -1.1253433479
 H   -0.6711301199    2.0557847189    0.6248117400
 H    0.6032840966   -0.4328948207   -0.6722132768
 H    0.3374112181   -0.1928937432    1.0549045236
 H   -2.4880722284   -0.7768670106   -3.0418573303
 H   -0.8696117204   -0.7467734911   -2.6179356900