23

 C   -0.2068785037    1.5759100151   -0.4760783214
 C   -0.0054379128    0.1757140456    0.1165372721
 C   -1.3089009928   -0.5886251872    0.2382972172
 C   -1.8753021268   -1.3757484028   -0.9216707365
 C   -1.4050013980   -2.0987137226    0.3266519594
 C   -0.1540334777   -2.9579308525    0.2518409890
 C   -2.4750793591   -2.6654730127    1.2545314177
 C   -3.0265964532   -3.9893357854    0.7649222132
 O   -3.1270245723   -4.9869934233    1.4319159094
 H    0.7425837092    2.1149660641   -0.5505523108
 H   -0.6436172273    1.5189299882   -1.4785940312
 H   -0.8823268624    2.1747511296    0.1448205617
 H    0.7031949311   -0.3798114785   -0.5073123172
 H    0.4623315845    0.2626030480    1.1061653692
 H   -2.0500881634   -0.0614671974    0.8372943146
 H   -2.9389006681   -1.3143918622   -1.1287130946
 H   -1.2600330646   -1.4683249954   -1.8117210467
 H    0.5741780321   -2.5646949583   -0.4607041201
 H    0.3361226087   -3.0279016493    1.2299831676
 H   -0.3987354446   -3.9790711935   -0.0626283808
 H   -2.0974366922   -2.8054761643    2.2731853908
 H   -3.3219329699   -1.9662250737    1.3036851222
 H   -3.3510821664   -3.9795448615   -0.3020620848