20

 C   -0.0192178737    1.5658117109   -0.1054202369
 C    0.0095302159    0.0398130966    0.0329835103
 C    0.7367482292   -0.4821527744    1.2783274135
 O    2.0544458040    0.0672214046    1.2418304839
 C    0.0447928248   -0.0609932040    2.5783665035
 O    0.7290892385   -0.6095782194    3.7194791719
 C    1.1449727820   -1.8966680611    3.5867936931
 N    1.1988162544   -2.6138306473    2.5486444101
 C    0.7979676685   -2.0209350234    1.2735343254
 H    0.9927633692    1.9737785250   -0.0602141613
 H   -0.4649404007    1.8527089262   -1.0623305113
 H   -0.6117324924    2.0403208271    0.6837456923
 H   -1.0112269664   -0.3611585436    0.0323409842
 H    0.5146012741   -0.3929983148   -0.8389103720
 H    2.5146932493   -0.1977501800    2.0455245345
 H    0.0727593656    1.0205902551    2.7143304259
 H   -0.9982972710   -0.4014028282    2.5949098713
 H    1.4761631033   -2.2787042559    4.5509688351
 H   -0.1726035988   -2.4444190474    0.9840986378
 H    1.5188257440   -2.3366787859    0.5116815987