16

 N   -0.1548580896    1.2566804947    0.0278693444
 C   -0.1337013498    0.0113253966    0.2117103483
 O   -1.0740906399   -0.7681797988   -0.3855388659
 C   -0.9322816120   -2.1343948344   -0.2232593088
 C   -0.1204083921   -3.1078580708   -1.0756956929
 C   -0.9452282581   -4.1911845575   -0.3298929274
 O   -0.4709172298   -4.1128837392    1.0490347530
 C   -1.1583076569   -2.8689934867    1.1206363986
 C   -2.0672336674   -3.1234119961   -0.0376504670
 H    0.6004142395    1.6978997053    0.5487075432
 H    0.5715124708   -0.5616001926    0.8260797110
 H   -0.4044085329   -3.0377279479   -2.1283155894
 H    0.9666258536   -3.1551021409   -0.9612545401
 H   -1.0628382305   -5.2061133572   -0.6999367667
 H   -1.3086613364   -2.3829129122    2.0756123905
 H   -3.1345814184   -3.0648607321   -0.1934802009