17

 O   -0.1500352296    1.3575467598   -0.0108687991
 N    0.0117750433   -0.0468988752   -0.0018152914
 C   -1.1266193225   -0.6315735674    0.0024734172
 C   -1.2133783980   -2.1670568923    0.0113261737
 N   -2.6176638118   -2.3792817021   -0.3582473894
 C   -3.7099000916   -3.1315548268    0.3141029758
 C   -4.6100710960   -1.8617764351    0.1055671285
 C   -3.2886132855   -1.1762320233   -0.1646883683
 C   -2.4926106020   -0.1051488179    0.0235769899
 H    0.7630385449    1.6613518827   -0.0113254692
 H   -0.5131852841   -2.6359834454   -0.6828837817
 H   -1.0182391343   -2.5588900308    1.0206951671
 H   -3.9979060841   -4.0585037773   -0.1873231087
 H   -3.5133034510   -3.3249653896    1.3767164184
 H   -5.2693161965   -1.9378798038   -0.7616685781
 H   -5.1730422680   -1.5027242307    0.9671048701
 H   -2.7593846832    0.9269706353    0.1713175552