17

 C    0.0230221281    1.5186261935    0.0088405330
 C   -0.0475141556   -0.0110238447    0.0028528946
 C   -1.4830683234   -0.5054735599    0.0132322449
 O   -1.4453777158   -1.9524869294    0.0064526743
 C   -2.5996855557   -2.5920054673    0.0144056540
 C   -2.8200336360   -3.9516642272    0.0108600855
 N   -4.1712069820   -4.1116201285    0.0225278207
 N   -4.8005380150   -3.0401358744    0.0326778185
 O   -3.7386428198   -1.9399170618    0.0274896292
 H    1.0621161419    1.8578098192    0.0013276873
 H   -0.4728981110    1.9454808466   -0.8694262804
 H   -0.4576139847    1.9378573821    0.8991952739
 H    0.4574174506   -0.4125987286   -0.8827325763
 H    0.4727714020   -0.4201937638    0.8759860104
 H   -2.0219329785   -0.1696470709    0.9058787359
 H   -2.0374386935   -0.1617603908   -0.8668356410
 H   -2.1239735716   -4.7701549641    0.0011680156