17

 C   -0.5027309031    1.3262196533    0.1697930077
 C    0.3889391932    0.1067545044    0.2646565688
 C    0.6225931244   -0.7335316460   -1.0107568802
 C    2.1209401610   -0.3757995797   -0.8037512759
 O    1.7997921267    0.4576451413    0.3321697841
 C    3.0112862053   -1.4801093954   -0.4907121934
 C    3.7487317819   -2.4077324256   -0.2520437538
 C    4.6322032441   -3.4963276992    0.0746335758
 O    4.9427257827   -4.3803962011   -0.6906226604
 H   -0.2481093855    1.9288703258   -0.7075675010
 H   -1.5534766670    1.0250985833    0.0953428266
 H   -0.3892374864    1.9509564283    1.0610846336
 H    0.1134640012   -0.5013843513    1.1362631673
 H    0.3803948657   -1.7935387318   -0.9456170074
 H    0.1933167608   -0.3116045264   -1.9207739072
 H    2.5646412992    0.2181387262   -1.6133177020
 H    5.0197528058   -3.4646694461    1.1131982474