16

 C    0.0821197467    1.5142371396    0.0807635355
 C    0.0599855025    0.0236116475    0.0081802203
 N    0.0207368226   -0.6443182179   -1.1444680060
 N    0.0132316755   -1.9137170895   -0.7696219607
 N    0.0442270677   -2.1582348096    0.5411357355
 C    0.0744159602   -0.9317515998    1.0570969627
 N    0.1140061333   -0.6245139856    2.4100731473
 C    0.1307190104   -1.4649839445    3.5044426842
 N    0.1112048033   -2.7330912379    3.4356179722
 H    0.9853552976    1.8848543609    0.5809747657
 H    0.0610037518    1.9330506727   -0.9270639357
 H   -0.7828933917    1.9087604615    0.6280182449
 H   -0.0142457754   -2.6657607323   -1.4370670504
 H    0.1330228274    0.3594899366    2.6166986041
 H    0.1630918286   -0.8757592885    4.4302470294
 H    0.1301318995   -3.1273955731    4.3738983310