25

 C    0.1292294707    1.5397423446   -0.3085234296
 C    0.0972338359    0.0447628973   -0.0808324480
 C    1.3734001568   -0.7621450976   -0.0516820184
 C    0.5580758865   -0.5903079471    1.2106787948
 C    1.1125684254    0.2220598211    2.3984121388
 C    0.5742730288   -0.4938588987    3.6557366004
 C    0.3650983200   -1.9540784925    3.2136729862
 C   -0.4974659261   -2.7890395820    4.1564184071
 C   -0.2087179780   -1.7808871437    1.7953577169
 H    1.0244764535    1.9949375120    0.1263201670
 H    0.1317068448    1.7715957038   -1.3794944685
 H   -0.7425618989    2.0349346117    0.1352939572
 H   -0.7535255406   -0.4501375742   -0.5465776941
 H    1.3900378245   -1.7363785563   -0.5312529929
 H    2.3106371479   -0.2160727077   -0.1234890943
 H    2.2083869563    0.2070214907    2.3925499357
 H    0.8127441900    1.2741097149    2.3708038330
 H    1.2402418374   -0.3971008303    4.5187379366
 H   -0.3949470512   -0.0683204914    3.9481527072
 H    1.3539091831   -2.4270992122    3.1251262497
 H   -1.4946410504   -2.3463084718    4.2673062371
 H   -0.6272373423   -3.8107485327    3.7833141650
 H   -0.0503289965   -2.8550172512    5.1542827540
 H   -1.2806250137   -1.5457672314    1.8692785355
 H   -0.1208008438   -2.6842781751    1.1829922033