21

 O   -0.3299256054    1.4793764405    0.0491035390
 C   -0.1494793966    0.0823802836    0.0268214255
 C    0.3256222911   -0.6400776840    1.3194496565
 C   -0.7398200348   -1.7358080273    1.0334714569
 C   -1.5095585528   -2.3348535659    2.2067155922
 C   -2.5778665072   -3.3082059202    1.7693216887
 C   -3.8618521753   -3.4420163557    2.4675143900
 O   -3.7766207743   -2.7480389014    1.2216537467
 C   -1.4603084130   -0.7227031648    0.0968484173
 H    0.5344249222    1.8979071333   -0.0147036872
 H    0.4584725512   -0.2253312508   -0.8367697271
 H    1.3739927560   -0.9400589928    1.4007774957
 H    0.0507100125   -0.0418700474    2.1945990958
 H   -0.2937123734   -2.5435338363    0.4405267579
 H   -0.8126813272   -2.8578132225    2.8769141043
 H   -1.9763713296   -1.5325615156    2.7910308482
 H   -2.2151174510   -4.1784610872    1.2171222839
 H   -4.4012341786   -4.3880463848    2.4412259921
 H   -4.0655363363   -2.8176898632    3.3369917230
 H   -2.2153722580   -0.1516185736    0.6445069137
 H   -1.8987982193   -1.0867956938   -0.8338537431