21

 C   -0.1402448035    1.5109033845    0.0226025098
 C    1.2615860998    0.9715658013   -0.0435371748
 C    0.0765561594    0.0149163109   -0.0025012016
 C   -0.2115068744   -0.7607465443    1.2808150215
 C    0.1856467425   -2.2369548923    1.2012637667
 C   -0.8737598154   -3.2782747452    0.9244493257
 C    0.1270286186   -2.9047158539   -0.1516843505
 C   -0.2504954525   -2.0617977647   -1.3125811863
 C   -0.2460115578   -0.7279358021   -1.2497625015
 H   -0.4759944075    1.9527338514    0.9555939723
 H   -0.5524150888    1.9819679413   -0.8642342565
 H    1.8058864530    1.0668285859   -0.9767338452
 H    1.8830279781    1.0387291360    0.8435742586
 H    0.2981890222   -0.2832318307    2.1244374709
 H   -1.2856910004   -0.6835086166    1.4911053651
 H    0.9986531864   -2.5392656017    1.8530428487
 H   -0.7806961082   -4.2539045023    1.3898626262
 H   -1.8947588283   -2.9295919236    0.8038690273
 H    0.8813357848   -3.6587306710   -0.3640438122
 H   -0.5004174285   -2.5638984530   -2.2440497747
 H   -0.4807335295   -0.1378745998   -2.1331794996