16

 O   -0.0231629142   -0.0145367225   -0.0107682139
 C   -0.0004579845    1.1859757865    0.0184573636
 N   -0.9759972353    2.1519155063    0.0850084307
 C   -0.0734681906    3.3082805187    0.1040314177
 C    1.0975929916    2.2916532852   -0.0301926612
 O    2.1112212459    2.3073483404    0.9872621982
 C    3.1340373199    2.4445312676   -0.0136112565
 C    3.1417045873    1.2581859424   -0.9200226651
 C    2.1344474132    2.3740509149   -1.1412780579
 H   -1.9824310408    2.0857580568    0.1008645894
 H   -0.2006966675    3.9986177737   -0.7363231434
 H   -0.0570269693    3.8584011034    1.0491472465
 H    3.9656770681    3.1035574753    0.2024486201
 H    3.9446187309    1.2310712094   -1.6504113173
 H    2.8084042193    0.2953716376   -0.5467231021
 H    2.0435326860    2.9381763343   -2.0589943888