22

 C    0.7411028021   -0.7191543893    1.2584388161
 C    0.0057062698   -0.1955785802    0.0216542751
 C    0.7405992334   -0.4627246553   -1.3266762113
 N    2.0990179968    0.0376207212   -1.4493748092
 C    2.2950937031    1.4469988277   -1.1612168693
 C    0.7822723292   -1.9641631796   -1.5704136727
 O    1.7150414634   -2.6815478237   -1.3027139267
 O   -0.3818034481   -2.4101930233   -2.0783681218
 C   -0.4624611674   -3.8277859514   -2.2781093336
 H    0.8936165458   -1.8017912044    1.2133459524
 H    1.7268855121   -0.2546802255    1.3619129606
 H    0.1739510274   -0.4963318973    2.1670310205
 H   -0.9929691097   -0.6418968100   -0.0457699781
 H   -0.1489492921    0.8852125003    0.1127848498
 H    0.1300867213   -0.0140897229   -2.1201462980
 H    2.7301791818   -0.5577146659   -0.9263538281
 H    1.6795004786    2.0487975886   -1.8407798588
 H    2.0532169507    1.7612736484   -0.1315611608
 H    3.3408330494    1.7065536499   -1.3513106275
 H    0.3065881948   -4.1608635281   -2.9793241845
 H   -0.3286445967   -4.3595279662   -1.3326055042
 H   -1.4565954758   -4.0139912731   -2.6843233397