23

 C   -0.0700951146    1.5338606446   -0.0086404499
 C    0.0892198914    0.0148539526    0.0225630581
 C    1.0530503609   -0.6287670499   -1.0059091316
 C    2.4194379364    0.0098840832   -0.6549948451
 C    2.2825329050   -0.8051023726    0.6414259170
 C    3.4287971358   -1.0614403269    1.5870953287
 C    1.5032677854   -1.9063022121   -0.1655459872
 C    0.5560042431   -2.1054840982    1.0247737721
 C    0.8132683119   -0.5920907428    1.2504041530
 H    0.8569414588    2.0632563042    0.2257758102
 H   -0.4099452103    1.8750336537   -0.9932324371
 H   -0.8179060260    1.8514078783    0.7262479728
 H   -0.9097877379   -0.4276202945   -0.0718592495
 H    0.7111130004   -0.7114005495   -2.0381156729
 H    3.2280521496   -0.4050719610   -1.2667451423
 H    2.5165187202    1.0988244411   -0.6304059931
 H    3.7217709350   -0.1397998853    2.1047819588
 H    3.1695043096   -1.7975714925    2.3561140820
 H    4.3096859195   -1.4336910699    1.0519924396
 H    2.0017788906   -2.7153864735   -0.7005268297
 H   -0.4773778744   -2.4278542028    0.8609237351
 H    1.0168181873   -2.7401492580    1.7868603792
 H    0.6615990623   -0.1194250683    2.2222981620