17

 O   -0.0711809165    1.3359852703    0.1964422103
 N    0.0270444955   -0.0638681575    0.2451073160
 C   -1.0903587919   -0.6160508035   -0.0000753752
 C   -2.4063637853    0.0534736308   -0.3341650200
 C   -3.2474638789   -1.0825097646   -0.8863608668
 N   -2.5834693076   -1.7787340440   -2.0102328661
 C   -2.5645080600   -2.3784972506   -0.6573335909
 C   -1.2073858436   -2.1482179445   -0.0054765197
 O   -0.1515394552   -2.8149030941   -0.6563549446
 H    0.8370984287    1.6082687700    0.3657809373
 H   -2.8615721089    0.4798125960    0.5689126961
 H   -2.2641350102    0.8748268617   -1.0422955209
 H   -4.3294287864   -1.0050018590   -0.8896122035
 H   -3.2796289972   -2.2498977121   -2.5816778772
 H   -3.1003812196   -3.3036135682   -0.4773121986
 H   -1.2091885861   -2.5260230475    1.0238105674
 H   -0.1795983368   -2.5147887632   -1.5741461236