17

 C   -0.0077490218    1.3430546887    0.2511559179
 N   -0.0392382206   -0.0412637701   -0.1806195037
 C   -1.1857207102   -0.7800196518   -0.0741673907
 N   -1.2422896503   -2.1026227789   -0.0911682834
 C   -2.5817148261   -2.3315782188   -0.0139140438
 O   -3.0284338343   -3.5892448705   -0.0083973053
 C   -4.4428655371   -3.7344192644    0.0761428567
 N   -3.3653516983   -1.2710838485    0.0570721508
 N   -2.4261025988   -0.2554238992    0.0261774853
 H    1.0069734121    1.7264341735    0.1320142757
 H   -0.6594767571    1.9554708986   -0.3831887116
 H   -0.3137668908    1.4820917210    1.2988753701
 H    0.7850401265   -0.5920514304    0.0036855576
 H   -4.6344290555   -4.8081473482    0.0702662276
 H   -4.8283104611   -3.2856045610    0.9975344756
 H   -4.9372930781   -3.2568232701   -0.7761553087
 H   -2.7282345884    0.7019555603    0.0257424298