23

 C    0.0898227384    1.5149926916    0.2315775972
 C    0.0106810495    0.0241912331   -0.1285271576
 C   -1.3977232053   -0.5049507280   -0.0938319638
 C   -2.0838517728   -0.9433472440    1.1724369471
 C   -1.9404094515   -1.9360699582    0.0513675618
 C   -2.9947517926   -1.6907028189   -1.0358885637
 C   -4.4688654569   -1.9020171043   -0.7135711727
 C   -2.4516931649   -0.2131187094   -1.1592486888
 O   -3.3134548672    0.8570613368   -0.8201326426
 H    1.1160964783    1.8879736717    0.1546015395
 H   -0.5414023857    2.1125407186   -0.4335964425
 H   -0.2597324716    1.6876041672    1.2544632809
 H    0.4370772028   -0.1337899135   -1.1287739956
 H    0.6329628358   -0.5570298708    0.5638280050
 H   -1.4138525077   -1.1027936475    2.0123075795
 H   -3.0516084624   -0.5379392534    1.4493402807
 H   -1.3734647855   -2.8524440282    0.1723552041
 H   -2.7375095531   -2.2432664447   -1.9458948684
 H   -4.7808457351   -1.3267408059    0.1615498094
 H   -5.1033100918   -1.5952465026   -1.5538022848
 H   -4.6757954450   -2.9593570101   -0.5160620398
 H   -1.9913007937   -0.0413441858   -2.1423409164
 H   -3.9548470118    0.9644540162   -1.5299928888