17

 C   -0.0260222860    1.5124563021    0.0358114506
 C   -0.0009132129    0.0095715692   -0.0328046440
 N   -0.0939287530   -0.6011987692   -1.1657344715
 C   -0.0691305233   -2.0099807017   -1.2159464673
 O   -0.1559509868   -2.6003895798   -2.2776731438
 C    0.0657080745   -2.7375075942    0.0643198230
 C    0.0929788597   -4.2337238404    0.0203190874
 C    0.1570922936   -2.0230813786    1.2028713089
 N    0.1246295709   -0.6450591913    1.1641961195
 H    0.8960651602    1.9021113089    0.4819474574
 H   -0.1277886746    1.9073097157   -0.9736620834
 H   -0.8659887181    1.8651510392    0.6450592904
 H    0.9199985738   -4.5813881593   -0.6073319728
 H    0.1949777141   -4.6698045399    1.0182920065
 H   -0.8204280908   -4.6178332093   -0.4454186576
 H    0.2583505579   -2.4659615151    2.1874388851
 H    0.1933828907   -0.1168554063    2.0187247316