18

 C    0.1832212680    1.5726427210    0.1080692571
 C    0.0698238238    0.0634470003   -0.0015219680
 C    0.7228963902   -0.5756740638   -1.2488590307
 C    1.2173270687   -1.9280934509   -0.7235372501
 O    0.7980973823   -3.0979308949   -1.3564067852
 C    2.4994090823   -1.9258595339    0.0839092539
 C    1.1490660064   -1.8213046632    0.7661691085
 O    0.7374296430   -0.5332585684    1.1280720202
 H    1.2328356677    1.8814230394    0.0752381591
 H   -0.3494863853    2.0566394406   -0.7165789191
 H   -0.2487225764    1.9235633187    1.0494453589
 H   -0.9911666709   -0.2314751211    0.0302010643
 H   -0.0002678685   -0.7293748381   -2.0533604124
 H    1.5388075839    0.0485039753   -1.6317900805
 H    1.3985157756   -3.2709891275   -2.0897114158
 H    3.0133726861   -2.8777745485    0.1736536768
 H    3.1307971519   -1.0434876910    0.0729032805
 H    0.7870291912   -2.6300292842    1.3929586626