16

 C   -0.5802357311    1.4149529521    0.1428249706
 O   -0.3787876632    0.0006229826    0.2923747942
 C    0.8380458118   -0.3618775156    0.7325343415
 O    1.7247460010    0.4003915173    1.0120161251
 C    0.9534352995   -1.8749115000    0.7863295138
 C    2.0547289937   -2.4802073604   -0.1222804878
 C    2.6932926858   -2.8683981392    1.1946302664
 N    3.7307833912   -3.4799986900    1.5278210680
 O    1.6879855023   -2.3068806126    1.9653788640
 H    0.1423742550    1.8320687142   -0.5626938258
 H   -1.5962670462    1.5311200442   -0.2329260590
 H   -0.4652288955    1.9192356625    1.1050862668
 H   -0.0270864753   -2.3496052992    0.7355831235
 H    1.7435161927   -3.3131223974   -0.7529967340
 H    2.6282992422   -1.7580262516   -0.7041786741
 H    3.8224521360   -3.5439683269    2.5427651568