17

 C    0.0460460619    1.5497944635    0.0644641370
 C   -0.0102706416    0.0202375140    0.0402613720
 C   -1.4337953298   -0.5437633445   -0.0814217612
 C   -1.4920195287   -2.0866120770   -0.0003017843
 O   -1.8183194906   -2.3831589600    1.3622201545
 C   -2.3464613150   -1.2686108008    1.9579285874
 O   -2.7736827006   -1.2529954065    3.0779191322
 N   -2.2988483789   -0.2350961092    1.0467721066
 H    1.0799026729    1.9027247893    0.1135978606
 H   -0.4106316178    1.9790658495   -0.8344276694
 H   -0.4757462226    1.9615405681    0.9351725988
 H    0.5713894064   -0.3535271761   -0.8121360062
 H    0.4558094930   -0.3902743960    0.9448163351
 H   -1.8841131131   -0.1919629333   -1.0171380243
 H   -2.2727311631   -2.4969109091   -0.6501234449
 H   -0.5379806886   -2.5613813829   -0.2406948454
 H   -2.4138723339    0.7000771712    1.4008440916