15

 N    0.2806711610    1.0758879845    0.6244636323
 C   -0.1952598063   -0.0863646503   -0.0997840391
 C   -1.6811880277   -0.0439809169   -0.4665025299
 C   -1.7370060739   -0.9834579362   -1.6915509949
 O   -0.4555066696   -0.8660510027   -2.3327882609
 C    0.4680155786   -0.3406578988   -1.4631278728
 O    1.5924893394   -0.1146874490   -1.7909932808
 C   -1.9812678847   -2.3854092279   -1.3138816135
 N   -2.1888343842   -3.4773655558   -1.0000872512
 H    1.2730348145    0.9634540368    0.8142250348
 H    0.2069357634    1.9021460343    0.0356877597
 H    0.0025782178   -0.9761375606    0.5131991489
 H   -2.3468188300   -0.3566928908    0.3372843021
 H   -1.9628335543    0.9667110515   -0.7789955849
 H   -2.4939631038   -0.6843508781   -2.4204118897