22

 C   -0.1749308410    1.3464930281   -0.4956032251
 C   -0.0588652099   -0.1176114543   -0.1124023365
 O   -1.3316109329   -0.7270166240   -0.3545535601
 C   -1.4484914066   -2.0515442568   -0.0789106623
 N   -0.4523681454   -2.6901768658    0.3762621994
 C   -0.5001821475   -4.0990491946    0.6905214572
 C   -2.8239264868   -2.5276066490   -0.3861220505
 C   -4.0156698249   -1.6120392737   -0.1684375238
 C   -3.5891537825   -1.9497119309   -1.5633238476
 H    0.7800200621    1.8530055524   -0.3259285619
 H   -0.4389735621    1.4552817323   -1.5516941256
 H   -0.9413715652    1.8484173309    0.1023217320
 H    0.7070163289   -0.6356566979   -0.6994258023
 H    0.2081732637   -0.2455219483    0.9420164004
 H    0.3345694936   -4.6061681813    0.1923197753
 H   -0.3514457264   -4.2392170087    1.7685635955
 H   -1.4225769418   -4.6257982227    0.4096685382
 H   -2.9921748661   -3.5759227157   -0.1809564091
 H   -4.9193128699   -2.0635240041    0.2255095618
 H   -3.8042362189   -0.6136157282    0.1927101329
 H   -3.0918758892   -1.1772040709   -2.1360740787
 H   -4.1951407010   -2.6364519368   -2.1436616993