20

 C   -0.0004656054    1.5506334567    0.0467334300
 C   -0.0238474834    0.0393921322   -0.0134920062
 C    1.2039580191   -0.7362654262   -0.4657332412
 C    0.7519144206   -0.7774024402    0.9797612881
 O    1.4868939515   -0.0571075729    1.9213753826
 C    0.1582470367   -2.0602163311    1.5378618948
 C    1.2491436800   -3.0153578968    2.0187828011
 N    0.9484517961   -4.3384151161    1.9506440219
 O    2.3230956379   -2.6234329429    2.4552934310
 H    0.9528390713    1.9049506025    0.4438274897
 H   -0.1475480649    1.9840685594   -0.9485141917
 H   -0.7929361254    1.9320585170    0.6999302506
 H   -0.9780374126   -0.3848774950   -0.3199234180
 H    1.0719012703   -1.6093809020   -1.0972640374
 H    2.1031520993   -0.1631073905   -0.6639552415
 H    2.1337110277   -0.6935218022    2.2707886630
 H   -0.4689037191   -1.8174223617    2.4063419871
 H   -0.4837431900   -2.5491578537    0.7976254787
 H    0.0693929389   -4.6730733304    1.5987120644
 H    1.6188628313   -5.0028559860    2.3022159229