19

 C    0.2591598263    1.5076941958   -0.1281440595
 C   -0.0981030187    0.0284883310    0.0776083931
 C    0.5232567893   -0.5482254282    1.3221605010
 O    1.9491197233   -0.7640407159    1.2932108531
 C    1.0602938139   -1.9041178038    1.4805293863
 C    0.9069224119   -2.2912922130    2.9176736261
 C    0.3719938757   -1.2809995138    3.6050526987
 C    0.0942216143   -0.0688495440    2.7257604459
 O    0.8100639308    1.0832714746    3.1453922114
 H    1.3393694743    1.6230480998   -0.2577745031
 H   -0.2355283396    1.9057683032   -1.0187157730
 H   -0.0365647056    2.1129132999    0.7329524462
 H   -1.1871343935   -0.0902966266    0.1460998365
 H    0.2316466241   -0.5584196008   -0.7868118859
 H    1.0861593846   -2.6343734270    0.6773969811
 H    1.2281676511   -3.2456155551    3.3171599372
 H    0.2134442888   -1.2459930491    4.6768108754
 H   -0.9639034369    0.2171517599    2.7416439863
 H    1.7395639559    0.8799552233    2.9726514131