20

 C    0.1709394742    1.4890136255    0.0095411022
 N    0.0534455955    0.0437198770    0.0005942085
 C    0.4711045453   -0.5608609443   -1.2707103234
 C    1.0531847362   -1.9510676852   -1.0053911620
 C    0.1309356063   -2.7584727598   -0.0675883465
 C    0.4693926078   -2.1177840760    1.2689083322
 C    1.8379109659   -1.4986930760    1.0547888263
 O    2.2668265838   -1.7726396850   -0.2595289303
 C    0.6146213531   -0.6118965352    1.1608392545
 H    1.2097696385    1.8524109519   -0.1008321189
 H   -0.4172914772    1.9066624110   -0.8149633229
 H   -0.2348589677    1.8907316982    0.9437730931
 H   -0.3835757336   -0.6156979753   -1.9610019924
 H    1.2569904026    0.0344914643   -1.7638844427
 H    1.3063007885   -2.4570839371   -1.9385545376
 H   -0.9203852325   -2.6513806296   -0.3492231518
 H    0.3924708411   -3.8209996849   -0.0697030624
 H    0.1703854494   -2.5878095233    2.1981579598
 H    2.6485730539   -1.5065486795    1.7737432530
 H    0.4892185189   -0.0367918568    2.0723601314