19

 C    0.1950211252    1.2722883157    0.2370434128
 O   -0.1643076669   -0.0419269978   -0.1641247437
 C    0.5205075704   -0.4825807911   -1.2662024308
 C    0.3403768384   -0.0884123776   -2.7347711092
 C    1.2097275863   -1.3482228145   -3.0222824263
 C    1.2544476998   -2.0426592176   -4.3466037556
 O    2.5272527931   -0.9675937729   -2.4982817702
 C    1.9485224759   -1.0746325141   -1.2008111754
 C    0.7951843535   -1.9323080144   -1.6102702708
 H    1.2667126645    1.3411082111    0.4672280754
 H   -0.0441609175    2.0102710323   -0.5406782484
 H   -0.3845870882    1.4998879888    1.1339624209
 H   -0.6950675077   -0.2304746141   -3.0556661691
 H    0.7388883884    0.8640322399   -3.0983858989
 H    1.6781268667   -1.3754803457   -5.1050875644
 H    1.8772698138   -2.9398438997   -4.2917440688
 H    0.2480280796   -2.3306139765   -4.6645404607
 H    2.5796774661   -1.0791771497   -0.3219552453
 H    0.3881139486   -2.8722637120   -1.2644365516