17

 O    0.0575629303    1.3228524367    0.4747874165
 C    0.0136878271    0.0122867106   -0.0762634843
 C   -1.3793486399   -0.5614062108   -0.0832865234
 C   -1.9160686242   -1.2348831272   -1.1040486851
 C   -3.2811874422   -1.8512431025   -0.9894722176
 N   -3.9907650949   -1.2901769216    0.1554192160
 C   -3.4421057972   -0.6387684828    1.2287107403
 O   -4.0818299866   -0.2987806128    2.2055238561
 N   -2.0821000413   -0.3730492801    1.1052377424
 H   -0.4608947533    1.9005087895   -0.0963136644
 H    0.4317799425   -0.0284790063   -1.0903350790
 H    0.6590457477   -0.5881520848    0.5758809046
 H   -1.3541909621   -1.3898213180   -2.0161563402
 H   -3.8660644831   -1.6570578235   -1.8994696326
 H   -3.2040869659   -2.9500775153   -0.9061310343
 H   -4.9571216935   -1.5373475678    0.2947579704
 H   -1.7168564433    0.2933095766    1.7687796145