19

 C   -0.6639864519    1.3603263068   -0.0089835940
 C   -0.0019939532   -0.0223027503   -0.0540839719
 C    1.0107827304   -0.2046869259   -1.1651950734
 C    2.1522255154   -0.7704092232   -0.7685204891
 C    2.1392225608   -1.0561226415    0.7054563364
 O    2.9144709660   -0.1124880866    1.4959603089
 C    1.7251978861    0.6033459234    1.8876437284
 C    0.7976719784   -0.4351792750    1.1993012333
 O   -0.0411255716   -1.1730540443    2.0515347414
 H    0.0743288270    2.1662596623    0.0454732843
 H   -1.2662700172    1.5270037898   -0.9078535409
 H   -1.3280828816    1.4419137639    0.8571020599
 H   -0.8032481490   -0.7669903097   -0.1619685904
 H    0.7906501849    0.0986985321   -2.1844923135
 H    3.0009227975   -0.9940604254   -1.4050230111
 H    2.3772594518   -2.0904432167    0.9809630210
 H    1.6119540656    0.6517176485    2.9789976543
 H    1.7044966421    1.6225080805    1.4854235254
 H    0.4641523784   -1.4342540586    2.8290583710