16

 O   -0.2955352574    1.4249870827   -0.5000217995
 C   -0.0072842363    0.0873914363   -0.1247115355
 C   -1.3413752119   -0.6259214560    0.0365069781
 C   -1.2069725462   -2.0746621120    0.4490702072
 O   -0.1366081026   -2.6139076906    0.6221122748
 C   -2.5059905795   -2.8639536742    0.6246223183
 C   -2.4813051174   -4.1391911075   -0.2079942599
 O   -3.4074801347   -4.5239298422   -0.8698745038
 H    0.5384378054    1.8893005954   -0.6158719120
 H    0.5969279754   -0.4301507772   -0.8832414699
 H    0.5530314609    0.0386233182    0.8199565768
 H   -1.9636029200   -0.1039733465    0.7764351477
 H   -1.9139434894   -0.5798757697   -0.9002808376
 H   -2.5447792041   -3.1738316003    1.6780098522
 H   -3.4040104204   -2.2884770355    0.3926338644
 H   -1.5206005918   -4.6911336411   -0.1519769712