22

 C   -0.1582012167    1.5077959812    0.1918071666
 C    0.0476306457    0.0055222792   -0.0167737761
 C    0.7695026053   -0.4081248151   -1.3189269955
 C    0.0287223184    0.0745193870   -2.5758051508
 C    2.2238399335    0.1184334184   -1.3384676813
 O    2.9684011392   -0.2745396498   -0.1985182419
 N    0.8035082881   -1.8899255303   -1.2882159777
 C    1.3205144639   -2.7077209317   -2.2416722784
 O    1.9153136254   -2.3585974662   -3.2420300165
 H    0.7932653708    2.0443778248    0.2442146985
 H   -0.7601978528    1.9564578756   -0.6035110200
 H   -0.6813650148    1.6824832967    1.1366557775
 H    0.6305245053   -0.3924536453    0.8212585324
 H   -0.9308158843   -0.4940157028   -0.0014242221
 H    0.0546861806    1.1655168140   -2.6454946195
 H    0.4945195212   -0.3401639575   -3.4712771133
 H   -1.0191717204   -0.2411343005   -2.5498808888
 H    2.7045362960   -0.2081810152   -2.2670384408
 H    2.2069907811    1.2119061495   -1.3301900558
 H    3.0917100027   -1.2276333257   -0.2570304867
 H    0.3018071313   -2.3403464726   -0.5379133715
 H    1.1468135404   -3.7757853835   -1.9942907884