19

 C   -0.1075259830    1.5981977292   -0.0169359129
 C    0.0216612672    0.1061645125    0.3090913418
 C   -1.2994914938   -0.6208453088    0.1547021746
 O   -1.8614566460   -0.5942112703   -1.2003197580
 C   -2.1349273975   -1.9849575616   -1.1236882820
 C   -0.8710077179   -2.8091614546   -1.0709334851
 C    0.3419604495   -2.4841867440   -1.7650136950
 C    1.3536741953   -2.2760441877   -2.3818998843
 C   -1.4239807418   -2.1455641215    0.1951679191
 H    0.8522276537    2.1099574126    0.0986637547
 H   -0.4454397813    1.7363778868   -1.0479084223
 H   -0.8315476676    2.0902317972    0.6424599741
 H    0.7730939077   -0.3588933707   -0.3324805485
 H    0.3527772287   -0.0286655593    1.3475315181
 H   -2.0487330513   -0.1829988680    0.8302216381
 H   -3.0825743611   -2.3448130051   -1.5086063591
 H   -1.0927153229   -3.8755418350   -1.0543915424
 H    2.2449096896   -2.0728343357   -2.9218736134
 H   -1.6713493074   -2.7343519560    1.0682667226