17

 C    0.0229461457    1.5085865857    0.3584678780
 C    0.0586691187    0.0123624920    0.1578291150
 O   -1.1671417771   -0.5736946172   -0.1958066775
 C    1.3210312542   -0.6536536640   -0.3633800522
 C    0.8823395030   -0.8664696598    1.0571832792
 O    1.6992965850   -0.2943524844    2.0481941632
 C    1.1281230445   -0.1426207757    3.2652933316
 N    1.7893239961    0.3753759035    4.2060067281
 H    0.9740900828    1.8792152594    0.7470063192
 H   -0.1802342552    2.0202379776   -0.5897167122
 H   -0.7700134280    1.7776880426    1.0636663805
 H   -1.3700410396   -0.3125912095   -1.1013775093
 H    1.2162339661   -1.4894404265   -1.0455285960
 H    2.1946476909   -0.0291763804   -0.5143326695
 H    0.4585712053   -1.8327534198    1.3191198206
 H    0.0945427858   -0.5104145187    3.3100776284
 H    1.2219360119    0.4078679851    5.0505221930