21

 C    0.2600274401    1.5706479294   -0.0757680894
 C    0.0503974515    0.0680303698    0.0392858652
 O    0.6258689920   -0.5617642342   -1.1068439148
 C    1.1556708991   -1.8445602458   -0.7723201577
 C    2.3837181611   -2.0983735637   -1.6340554974
 C    1.4159084474   -1.7928908180    0.7309230173
 C    1.6852676254   -3.0444179627    1.5170254453
 O    2.1628581703   -0.6154153290    1.0918001012
 C    0.7337879057   -0.5944559341    1.2197617396
 H    1.3284317603    1.7976104011   -0.0436729266
 H   -0.1493835587    1.9373851613   -1.0207021789
 H   -0.2419847605    2.0940866682    0.7442046147
 H   -1.0286310635   -0.1604926852    0.0991894861
 H    0.3974392119   -2.6264005945   -0.9562531240
 H    3.1637589289   -1.3738169355   -1.3873244232
 H    2.7698293927   -3.1100753479   -1.4735236489
 H    2.1286882073   -1.9935735211   -2.6917252447
 H    2.6117505629   -3.5231997423    1.1820069190
 H    1.7897646083   -2.8133560147    2.5796901823
 H    0.8706229937   -3.7654904716    1.3924026665
 H    0.3396041038   -0.4889578494    2.2277685784