18

 O   -0.1436170521    0.0287829935    0.0323165922
 C    0.0040733680    1.2252400289   -0.0560443491
 C    1.2975622432    1.9107600109    0.0039481319
 C    1.4216836421    3.3837204889    0.3224918700
 C    1.8070573090    2.9528592668   -1.0521896520
 C    3.1422215286    2.2389667810   -1.0438477176
 C    4.0086102709    2.0062853314   -2.2150414904
 N    4.4663342252    2.8531447058   -1.0903819517
 C    2.6702358457    1.2273923262    0.0181945117
 H   -0.8662729600    1.9058126174   -0.2105452433
 H    0.4827440961    3.9251022933    0.3939921523
 H    2.1768317513    3.6931118747    1.0399880823
 H    1.2767054718    3.2991883244   -1.9321442130
 H    4.5378688808    1.0630495759   -2.3212484595
 H    3.7413515863    2.4837693522   -3.1550823970
 H    4.3919038064    3.8371730686   -1.3395027478
 H    3.2038835001    1.2496728986    0.9720220441
 H    2.6216913466    0.2009603816   -0.3499446232