18

 C   -0.0036502166    1.3597920248   -0.3632253283
 C    1.4449842330    1.5300645398    0.1934632006
 C    1.1085827381    0.2758830411    0.9906513451
 C    1.6288760636   -1.0068064620    1.6491494715
 C    0.2518674205   -1.7117775778    1.7522669444
 C    0.7720504607   -0.8596112969    2.8847763820
 C    0.0677718963    0.3384614255    2.1887690905
 C   -0.6905425874   -0.6014799199    1.1852958900
 N    0.0451419224   -0.1097877014   -0.0104941904
 H   -0.7412126632    1.9418111743    0.2026466756
 H   -0.1562702919    1.5314039564   -1.4302363859
 H    2.1985395711    1.3530197388   -0.5786205172
 H    1.6887891277    2.4363817425    0.7506973334
 H    2.5409732046   -1.5675263411    1.4944519487
 H    0.1530996020   -2.7866816805    1.6846095880
 H    0.9684764251   -1.0951826561    3.9211325634
 H   -0.3016381476    1.2491308158    2.6542536281
 H   -1.7646295884   -0.7876773832    1.1389696307