19

 C   -0.1030828715    1.4809501387   -0.0105105922
 C   -0.0504869732   -0.0481346035   -0.0380194524
 C    0.7531758816   -0.5705260013   -1.2339900702
 N    0.7993111888   -2.0199747808   -1.2906861174
 N    1.8302300267   -2.7166003409   -0.8459432955
 C    1.4479339229   -3.9882423588   -0.9869744782
 C    0.1490739374   -4.0034688258   -1.5309730240
 N   -0.6837877606   -5.0851434154   -1.7988867066
 N   -0.2460883290   -2.7425245199   -1.7164719535
 H    0.9005643537    1.9144516291    0.0622038738
 H   -0.5720629263    1.8797807120   -0.9168641877
 H   -0.6812734865    1.8375355445    0.8465930394
 H    0.4035616802   -0.4300265317    0.8833769742
 H   -1.0624420460   -0.4636006738   -0.0908501483
 H    0.3155299099   -0.2173127643   -2.1727770618
 H    1.7914368071   -0.2346570439   -1.1854087747
 H    2.0966910169   -4.8036018849   -0.7102309502
 H   -0.1944570638   -5.8919046334   -2.1606493308
 H   -1.4516183184   -4.8308757463   -2.4062557340