17

 N   -0.0764605805    1.3992717182   -0.1425069203
 C   -0.0648103088    0.0250225916   -0.0921803366
 N   -1.1361079917   -0.6585289077   -0.0602589932
 C   -1.0362232782   -2.0844713276   -0.0582706250
 C   -1.4966437352   -2.8565082232   -1.2768776639
 C   -0.0356092559   -2.7902632274   -0.9445595046
 O    0.7213787634   -1.9647689411   -1.7951503005
 C    1.7053728505   -1.2474844097   -1.1354079406
 O    1.2221563140   -0.4559188920   -0.0427104051
 H    0.7526640094    1.8496543644    0.2107800813
 H   -0.9515951751    1.8206823429    0.1294206766
 H   -1.2545574538   -2.5399105825    0.9058255452
 H   -2.0166429594   -3.7981272657   -1.1411285763
 H   -1.8142168969   -2.2646771976   -2.1276650978
 H    0.4913528576   -3.6765262965   -0.5924023379
 H    2.4688815218   -1.8925020379   -0.6786092088
 H    2.1585731489   -0.5965777782   -1.8916079124