19

 C   -0.1118281287    1.4477226611    0.1048556677
 N    0.2159807726    0.0334645242    0.0785877109
 C    0.5827962091   -0.5731625253   -1.0999138032
 O    0.8094524370    0.0383890851   -2.1298264719
 N    0.6750691403   -1.9584522331   -1.0142671493
 C    1.2924653255   -2.7066577694   -2.0994826916
 C    2.7333402584   -3.1347636791   -1.8244968018
 C    0.3861917626   -3.8759486111   -2.4650561848
 O    0.7690396908   -4.9809635220   -2.7485862173
 H    0.4427266125    1.9327561385   -0.6983492984
 H   -1.1818326302    1.6364418637   -0.0528872651
 H    0.1848412782    1.8828147966    1.0634671057
 H   -0.1993540024   -0.5451037209    0.7913013029
 H    0.7826751188   -2.3541647166   -0.0916191504
 H    1.2656540546   -2.0180337572   -2.9559479415
 H    2.7934976939   -3.7562617831   -0.9245095841
 H    3.1142305854   -3.7305741001   -2.6567757919
 H    3.3703589690   -2.2573851833   -1.6897801247
 H   -0.6960485773   -3.6142150281   -2.4465295111