21

 C   -0.0313356703    1.2329773503    0.3936353528
 N   -0.1906534329   -0.1825553345    0.0917034141
 C    0.7688695332   -1.0510043997    0.7440494565
 C   -1.3118667638   -0.5789018624   -0.5958119068
 O   -2.1425929114    0.2235896509   -0.9927217560
 C   -1.5508227497   -2.0683211487   -0.8627136654
 C   -2.5119594121   -2.6525750130    0.1576763280
 C   -2.5997189480   -4.1163109687    0.3675679890
 N   -2.0362217609   -3.2464940548    1.4195006796
 H    0.9698781363    1.5696723721    0.1002992420
 H   -0.7873437552    1.7890610191   -0.1565997956
 H   -0.1553161087    1.4209377841    1.4683978564
 H    0.6064536534   -1.0890178892    1.8306688592
 H    0.7244081953   -2.0657731688    0.3538184735
 H    1.7841236469   -0.6742612327    0.5721126931
 H   -2.0237448924   -2.0980322110   -1.8489550307
 H   -0.6410218406   -2.6726035215   -0.9169200574
 H   -3.4166323588   -2.0615214399    0.2797077705
 H   -3.5508940979   -4.5789251876    0.6148786304
 H   -1.9234698468   -4.7523988548   -0.1990144038
 H   -1.0220834454   -3.3223571491    1.4091496207