14

 O    0.0376098426    0.0483749008   -0.1315317117
 C    0.0282547078    1.2349165024    0.0271556274
 C   -1.1209579367    2.2671595430    0.1694933865
 C   -0.0563759506    3.3745294644   -0.0012454689
 C    0.9418668609    3.2518662154    1.1063457693
 C    1.0859229674    2.2937659034   -0.0619585794
 C   -0.2011261473    4.5276649106   -0.8193541114
 C   -0.3460078973    5.5014253147   -1.5113101403
 H   -1.8048767745    2.1842412914   -0.6789202382
 H   -1.6940071800    2.2815343942    1.1006828458
 H    1.7066133107    4.0198775145    1.1412745345
 H    0.6230413736    2.8867185234    2.0788212287
 H    1.9835836284    2.2715537965   -0.6669152857
 H   -0.4696042049    6.3611020054   -2.1221008266