19

 C    0.0940961934    1.5705907613   -0.0862036761
 C    0.1253698290    0.0495973558   -0.0102126016
 O   -1.2046888766   -0.4918159787    0.1104343538
 C    0.7198735924   -0.5959044352   -1.2676787268
 C    0.9373516563   -2.0950729255   -1.0772006448
 O    1.8172682510   -2.3346469148    0.0126057176
 C    1.2685111709   -1.9221893277    1.2476861986
 C    0.8499124910   -0.4520090442    1.2613085874
 O    0.9790840985    0.2381132212    2.2454269832
 H    1.1000119170    1.9774479430   -0.2252699574
 H   -0.5326787331    1.8840571490   -0.9256975758
 H   -0.3031200014    1.9932965199    0.8406076690
 H   -1.6285778528   -0.0561963893    0.8591797534
 H    0.0441343856   -0.4065652952   -2.1096089478
 H    1.6825966518   -0.1237206144   -1.4917203479
 H   -0.0248046003   -2.6031188280   -0.9147457171
 H    1.4167130862   -2.5351188575   -1.9556491574
 H    0.3795085841   -2.5240582516    1.5067870579
 H    2.0260869070   -2.0774708081    2.0185925819