20

 C   -0.1456112285    1.4101553433    0.5691582448
 C   -0.0581230620   -0.0178716514    0.0533842446
 C    1.0243344067   -0.3225086427   -0.9584739161
 C    1.1437993449   -0.8371570606    0.4549659561
 C   -1.3947586293   -0.7154046775   -0.0309388550
 C   -2.3231727258   -0.4119655113   -1.1716985852
 N   -1.7215294382   -1.7334526562   -1.0588522810
 C   -2.0626510568   -1.0565899792    1.2681501766
 O   -1.6815529676   -0.7116344042    2.3577964431
 H    0.8500362654    1.8607576770    0.6271207250
 H   -0.7562271843    2.0334491758   -0.0942386227
 H   -0.5872293087    1.4317733918    1.5681391537
 H    0.8551475957   -1.0463033708   -1.7497691824
 H    1.6561055180    0.5045112779   -1.2645136224
 H    1.8725747040   -0.3825207002    1.1166491160
 H    1.0033997406   -1.9012087609    0.6118893909
 H   -3.3984764622   -0.3748165321   -1.0166068875
 H   -1.9416607705    0.2821620871   -1.9161577424
 H   -0.9469132757   -1.8245107129   -1.7098727248
 H   -2.9726118457   -1.6826466428    1.1332223886