17

 C   -0.0096340009    1.4809715958   -0.1428639527
 O    1.3323451984    1.5256754769    0.3891784068
 C    1.4204512522    0.0849515091    0.4703432008
 C   -0.0179340602   -0.0408031501   -0.0088396894
 C   -1.0956860543   -0.9616019014    0.3895150583
 C   -2.5408394739   -0.5076517853    0.1833099719
 N   -2.6592963381   -0.2355087905   -1.2621578122
 C   -1.5437461008   -0.5304417920   -1.7936092999
 N   -0.4893765071   -1.0517572770   -0.9765096305
 H   -0.7218134199    2.0292648290    0.4862242340
 H   -0.0648352896    1.8668630710   -1.1681097532
 H    2.1667116273   -0.3303744172   -0.2178337658
 H    1.6273322853   -0.2599312595    1.4908580071
 H   -0.8769061801   -1.7867042194    1.0603393679
 H   -3.2527483955   -1.2899874727    0.4682361637
 H   -2.8086491752    0.3924468707    0.7489264528
 H   -1.3514889374   -0.4306531974   -2.8578059195