15

 O   -0.2377421834    1.5416118321   -0.0254147054
 C   -0.0181600486    0.1684978502   -0.2713057156
 C   -1.2931891151   -0.6384071634   -0.0199407179
 C   -1.2554511324   -2.1965500935    0.0954213801
 C   -2.0124284212   -2.1254996642    1.4611966598
 C   -1.7568577686   -0.6144600876    1.4405344012
 O   -1.7404013849    0.2511401969    2.2749494521
 H   -0.5845038636    1.6111486950    0.8742367859
 H    0.3019044576    0.0760873325   -1.3146218718
 H    0.7951552681   -0.2339379569    0.3563106687
 H   -2.0871439973   -0.2857464221   -0.6877894912
 H   -1.7539596357   -2.7480768910   -0.7016546754
 H   -0.2369925037   -2.5770799237    0.2063540973
 H   -3.0798276640   -2.3534258699    1.3729599036
 H   -1.6096040271   -2.6748773444    2.3154844787