18

 C   -0.0407572081    1.5448770485    0.0132973554
 C    0.0053262320    0.0169429585    0.0099058609
 C    0.6671200458   -0.5246384153   -1.2642614479
 N    0.8182787127   -1.9656407654   -1.1496570243
 C    0.9817411706   -2.5491772408    0.0804238603
 N    0.9613571414   -1.9841087065    1.2266072334
 C    0.7466818688   -0.5397475732    1.2376913493
 C    1.1871630643   -3.9862067084    0.0258459893
 N    1.3520714257   -5.1266629764   -0.0609653963
 H    0.9687695143    1.9701617851   -0.0244472778
 H   -0.5994345688    1.9309142834   -0.8457778447
 H   -0.5248734324    1.9188435702    0.9207184548
 H   -1.0206203886   -0.3725816215    0.0363426810
 H    0.0526346643   -0.3024341446   -2.1428881449
 H    1.6424282248   -0.0366720808   -1.4145575774
 H    0.9355167905   -2.5297146022   -1.9738328068
 H    1.7254467951   -0.0456280514    1.3374622206
 H    0.1919646877   -0.2917006891    2.1494458852