20

 C   -0.2310800289    1.4219009821    0.1208114072
 N   -0.0056501963   -0.0177510501    0.1448016853
 C    1.3688702995   -0.4664609856   -0.1060863043
 C    0.7811825620   -0.5507281408    1.2501709150
 C    1.2535679520    0.1665445417    2.5349049331
 C    0.8175219376   -1.0721076571    3.3318765006
 C   -0.6220310148   -1.3874746204    3.0712871775
 O   -1.5531518575   -0.3622148588    2.8620886305
 C    0.3776029464   -1.7849764051    2.0268513450
 H    0.6422568495    2.0141501415    0.4383785448
 H   -0.4974980567    1.7272980957   -0.8960794613
 H   -1.0645608611    1.6663276468    0.7867823020
 H    1.4744493619   -1.3548564208   -0.7246041740
 H    2.1287993478    0.2968368965   -0.2739802080
 H    2.3340224481    0.3266254319    2.5565244582
 H    0.7406895927    1.0958737434    2.7943192521
 H    1.3494389142   -1.4821605519    4.1811981299
 H   -1.0074618258   -2.2198039730    3.6609436704
 H   -1.9453663154   -0.5050016680    1.9939123733
 H    0.5159397347   -2.8102011678    1.7037816727