19

 C   -0.0071068700    1.5267477635    0.0751893379
 C   -0.0994708641    0.0074199149   -0.0420124141
 N    0.6036097781   -0.4888706131   -1.2120957787
 C    0.0037657076   -0.2277794193   -2.5419347055
 C    0.3235605671   -1.6850740578   -2.9008940815
 O    0.3604288579   -2.3283414971   -3.9061306562
 C    0.6361474762   -1.9608974573   -1.4211603155
 C    1.9233950962   -2.6828428185   -1.0579208154
 H    1.0381112577    1.8452425000    0.1222061820
 H   -0.4722933358    2.0189852324   -0.7855057304
 H   -0.5213693746    1.8759823982    0.9755785571
 H    0.3546364633   -0.4577221015    0.8410683656
 H   -1.1647943587   -0.3016425902   -0.0509920265
 H   -1.0860350887   -0.0523131151   -2.5246263631
 H    0.4796312043    0.5577097584   -3.1375082313
 H   -0.2328956125   -2.4680987893   -0.9616084417
 H    2.7833631579   -2.1874748346   -1.5161131617
 H    2.0720304483   -2.6969037824    0.0264959139
 H    1.8847932999   -3.7181397112   -1.4104424449