17

 O   -0.0650888798    1.4213835917   -0.0425187651
 C    0.0489643055    0.0196226494   -0.0316748539
 C    0.2060475481   -0.6053024888    1.3847965033
 O   -1.2388136528   -0.7070660091    1.4889109983
 C   -1.3610456383   -0.6047519016    0.0421078152
 C   -1.4855153703   -1.9665143781   -0.5960747953
 C   -0.6910478421   -3.0029713154   -0.2890923511
 C    0.4321255918   -2.9997297162    0.6558278164
 C    0.8603723400   -1.9641896239    1.3944225602
 H    0.8011161279    1.7968039461    0.1477049674
 H    0.7227328610   -0.3527829380   -0.8115814780
 H    0.6123673261    0.0575225854    2.1555914865
 H   -2.1739267242    0.0685898797   -0.2413139788
 H   -2.2779840021   -2.1032157895   -1.3259069277
 H   -0.8749697887   -3.9508879648   -0.7881012966
 H    0.9634245998   -3.9435164302    0.7478718336
 H    1.7180774281   -2.0996704466    2.0471818755