14

 O   -0.8573529391    1.5082360259    0.0688370834
 C    0.2092098689    1.0551793660    0.3898141610
 C    1.5302720054    1.8282733989    0.2630760026
 O    2.5478012869    1.2777755341    0.6113307352
 C    1.4536016618    3.2237758203   -0.3222823657
 C    2.7068165968    4.0299871777   -0.0911282978
 C    2.6783942059    5.4965259688   -0.0846348607
 O    2.7650077129    4.7593195117    1.1357318544
 H    0.3465548296    0.0355892046    0.8069314671
 H    1.2614526998    3.1060386001   -1.3994141206
 H    0.5735905725    3.7357845732    0.0793424033
 H    3.6364028735    3.5277178960   -0.3539534954
 H    3.5712828320    6.0552761991   -0.3606098687
 H    1.7358795032    6.0173668437   -0.2504350581