15

 O   -0.0013215588   -0.0355090472   -0.3395337714
 C    0.0401543362    1.0993100430    0.0643258636
 C    1.2742631028    1.9274740650    0.0547217453
 C    1.1727908272    3.4103906461   -0.1819804892
 C    1.5299291024    2.9376800078    1.2160845774
 C    0.5386301724    3.0730914502    2.2559860722
 C   -0.2776382854    3.2029701259    3.1281460815
 C    2.9017560980    3.0605135109    1.6404435856
 C    4.0489858976    3.1603956073    1.9833952923
 H   -0.8608132898    1.6099547052    0.4663613944
 H    2.1588224328    1.4153637068   -0.3042801209
 H    1.9570967834    3.8818375138   -0.7607391843
 H    0.1820797659    3.8344408477   -0.3025426511
 H   -0.9947952489    3.3117145226    3.9040503492
 H    5.0600136442    3.2498281548    2.2960779656