21

 C    0.0336883459    1.3554707140   -0.0980565597
 O   -0.0910707707   -0.0216651523    0.1878816954
 C   -1.3944654491   -0.5715589448    0.1007714709
 C   -2.3100832278    0.0720676696    1.1369690416
 C   -1.8940098204   -0.8033083299   -1.4012881435
 C   -0.7933569919   -1.9166472174   -1.4715769395
 C   -1.2548082384   -2.1467149545    0.0086365391
 C   -2.7114551884   -2.5454595130   -0.2261735513
 C   -3.1293268314   -1.6655154020   -1.1439722763
 H    1.1045387681    1.5706846723   -0.1390340536
 H   -0.4128532567    1.6197514297   -1.0672550713
 H   -0.4175939069    1.9901825158    0.6766145711
 H   -2.5087063561    1.1201131526    0.8910888276
 H   -3.2692643671   -0.4384087169    1.2055653848
 H   -1.8224919052    0.0453653081    2.1169683362
 H   -1.9623682786    0.0070201839   -2.1275039641
 H   -0.9826577449   -2.7352912026   -2.1682800141
 H    0.2222691029   -1.5342831649   -1.5616172588
 H   -0.6559291361   -2.6968988013    0.7340294413
 H   -3.2525775499   -3.3338632432    0.2775367913
 H   -4.1053989775   -1.5391691832   -1.5911178872