19

 C    0.0310208035    1.5348718721   -0.1120219460
 C    0.0156533676    0.0105710735    0.0503752233
 C    0.8112470830   -0.4339662770    1.2814849094
 C   -1.4466802327   -0.5379828739    0.0670972342
 O   -2.0364531562   -0.0971928237   -1.1605612119
 C   -1.4502686787   -2.0123515395    0.1148624272
 C   -1.4724720597   -3.2138381325    0.1116713461
 C   -2.2111608538   -0.0171803442    1.2164945704
 C   -2.8579393025    0.4137912543    2.1331315892
 H    1.0634965383    1.8866566539   -0.2012486781
 H   -0.5190932286    1.8444788689   -1.0019393858
 H   -0.4177467729    2.0251841439    0.7579426941
 H    0.4593046207   -0.4428716338   -0.8439287414
 H    0.3816466983   -0.0144839205    2.1970444224
 H    0.8294073485   -1.5223523111    1.3803985920
 H    1.8441758819   -0.0818086628    1.2033087823
 H   -2.9415784507   -0.4277768104   -1.1824989168
 H   -1.4919120572   -4.2759185112    0.1152344420
 H   -3.4281670388    0.7914526740    2.9459998173