17

 C    0.0250955065    1.4678694705    0.0159535899
 C    0.0204953418    0.0127825435    0.0074441708
 C    0.0101628732   -1.1930504374   -0.0044856087
 C    0.0020712310   -2.6190511950   -0.0098242283
 C   -0.3633152292   -3.4447492697   -1.2233496115
 C   -1.2536768899   -3.5606549398   -0.0137171550
 N   -0.9912867607   -4.6048141316    0.9307347125
 C    0.1855226078   -4.4027260997    1.4035301881
 N    0.8838811813   -3.3168657931    0.9085891953
 H    1.0085648595    1.8683605311   -0.2546574630
 H   -0.7001048130    1.8629701501   -0.7040779412
 H   -0.2388259545    1.8658476680    1.0021076859
 H   -0.7655204830   -2.8935324771   -2.0652671284
 H    0.2830869394   -4.2797233238   -1.4742900045
 H   -2.2719587175   -3.1929602610   -0.0704238006
 H    0.6593395275   -5.0510789409    2.1333862281
 H    1.4821640397   -2.7723305742    1.5117576207