17

 C   -0.0805810233    1.4126085075    0.0764253808
 N   -0.0207980903   -0.0207393402   -0.1680808629
 C   -1.2059608846   -0.7367110183   -0.0931783310
 N   -2.4008608793   -0.1612678185   -0.0732097044
 N   -3.2795460900   -1.2191526717   -0.0182044531
 C   -2.6569707829   -2.4230503726   -0.0329278607
 N   -3.3417332009   -3.6398628197   -0.0620768762
 C   -1.3053146806   -2.1545294869   -0.0697625907
 O   -0.2865809702   -3.0809985201    0.0114170083
 H    0.9242198658    1.8308277668   -0.0229239166
 H   -0.7280075321    1.8783456060   -0.6705407840
 H   -0.4830904619    1.6704053702    1.0671203983
 H    0.7277092463   -0.4881210737    0.3255262647
 H   -4.2539866402   -1.0448497066   -0.1871299711
 H   -4.0089628522   -3.7354765203    0.6959759371
 H   -2.6784174682   -4.4045702596   -0.0085666981
 H    0.1630042746   -3.1171400222   -0.8407478606