19

 O    0.0523599144    1.4452680523   -0.2856271813
 C    0.0097743760    0.0649617652   -0.0641218127
 C    0.0667464058   -0.5300729364    1.3800319368
 C   -1.4260560744   -0.0982790167    1.5491724191
 C   -1.3477201308   -0.6910644424    0.1048784974
 C   -0.4963805515   -1.8205219120    0.7353334370
 C    0.3026256529   -2.9018424202   -0.0143095379
 C   -0.4300538667   -3.8794727095    0.9224989854
 O   -1.1362169993   -2.7987234234    1.5685827587
 H   -0.5480268534    1.8842365835    0.3253495521
 H    0.7086206188   -0.3665965166   -0.7848485092
 H    0.8746669996   -0.4507743152    2.1085272074
 H   -2.0132265851   -0.6636230959    2.2718782972
 H   -1.6358108001    0.9708262447    1.6468430929
 H   -2.1542064386   -0.7955011172   -0.6220330780
 H    0.0685329917   -3.0035825623   -1.0757026258
 H    1.3859339570   -2.8532458084    0.1113054775
 H   -1.1188080453   -4.5807232916    0.4375192714
 H    0.2025535990   -4.4294286280    1.6286933219