17

 C   -0.2859889333    1.3436840657   -0.2848489320
 O   -0.3107473762   -0.0665307174   -0.3362281436
 C    0.8644653525   -0.6099699205   -0.9191756782
 C    0.7251405358   -2.0967040597   -0.9619313325
 N    1.7093365051   -2.8806920196   -0.5915338511
 O    1.2674958421   -4.1694641752   -0.7951773589
 C    0.0002422352   -4.1315236457   -1.2739877335
 C   -0.4121089115   -2.8413176202   -1.4078681058
 N   -1.5900997065   -2.2894498252   -1.9140553067
 H    0.5546241736    1.7087394029    0.3238386433
 H   -0.2033862217    1.7864629950   -1.2894607424
 H   -1.2227600464    1.6693298396    0.1726575361
 H    0.9913483627   -0.2103847025   -1.9398510835
 H    1.7592094907   -0.3392876448   -0.3410319439
 H   -0.4614025995   -5.0866617679   -1.4651697121
 H   -2.3821918957   -2.9161640512   -1.8718359858
 H   -1.8027090271   -1.4124957134   -1.4535170895