14

 O   -0.0402465634    1.3262204812    0.2161848588
 N    0.0160320920   -0.0381950977   -0.0159998880
 C   -1.1553711088   -0.5593430793   -0.0619100321
 C   -2.4920290083    0.0237411946    0.0517926041
 C   -3.4337855202   -0.9335516892    0.0125785350
 C   -2.8417105662   -2.3178029665   -0.0282173454
 O   -3.4008409788   -3.1448181487   -1.0208025826
 C   -1.3467746553   -2.0307123858   -0.2838454624
 O   -0.5599115145   -2.8586355554   -0.6652131158
 H    0.8905024423    1.5790303686    0.2253666774
 H   -2.6632974399    1.0873229295    0.1378815755
 H   -4.5037498238   -0.7679447981    0.0441748346
 H   -2.9297347898   -2.7877012044    0.9696913916
 H   -2.7093150754   -3.7751069288   -1.2650187508