16

 O    0.3067313583    0.9394926146   -0.5587873013
 C   -0.0725190891   -0.3379663627   -0.1492210181
 C   -0.0420018341   -0.6781713393    1.3947912374
 C   -1.4437816856   -1.3561325994    1.2311946477
 C   -1.5751460374   -0.5923841095   -0.0881175729
 C   -2.6289009936    0.3187889871   -0.5312872897
 O   -2.3821089391   -0.9415186592   -1.1832432795
 C    1.0622972761   -1.4731884775    1.8916893187
 N    1.9526744750   -2.1155353493    2.2559949305
 H    1.2358256282    0.9308858165   -0.8091947995
 H    0.4299274981   -1.1313697839   -0.7171118072
 H   -0.1212017172    0.2543067672    1.9589189744
 H   -1.3591107257   -2.4338114769    1.0738365141
 H   -2.1754647542   -1.1579564736    2.0145518911
 H   -3.5604371250    0.3762955698    0.0294290136
 H   -2.3612093046    1.1995517662   -1.1099730295