18

 C   -0.0201121275    1.4233671931   -0.0466069236
 C   -0.0088895575   -0.0301052518    0.0082486942
 C   -0.0030559515   -1.2350266535    0.0455440528
 C    0.0276126675   -2.6562315227    0.1185050949
 C    1.1899711051   -3.5402280038    0.5583338928
 C    0.4428867873   -4.6493638485   -0.1989985952
 C   -0.8623875122   -4.9031911435    0.5803449054
 C   -1.2174807097   -3.5051316130    0.1136933618
 N   -0.2924241787   -3.5690755189   -1.0635607699
 H    0.9081231981    1.8413364369    0.3585368587
 H   -0.1188944805    1.7781904990   -1.0786116569
 H   -0.8526959366    1.8414159080    0.5301908395
 H    2.1061225463   -3.2437929763    0.0427395163
 H    1.3855863995   -3.6720908055    1.6275503746
 H    0.9771470994   -5.4535020596   -0.6996536975
 H   -1.4888645349   -5.6462402274    0.0801816255
 H   -0.8016566391   -5.1235282505    1.6511405337
 H   -2.1956681049   -3.0450625521    0.0321233528