17

 C    0.0157557182    1.4395512854    0.0053435435
 C   -0.0403912289   -0.0585750136   -0.0102915510
 O    0.8825844398   -0.6288174357   -0.9405240679
 C    0.4302270647   -1.8697706236   -1.3129112291
 O    0.9542171017   -2.5212770297   -2.1668003039
 C   -0.7186800472   -2.2148032255   -0.3804315450
 C   -0.0796730054   -2.3233666020    1.0558517016
 C   -0.3673023095   -0.8383974754    1.2523378627
 C   -1.3063182051   -0.8428477569    0.0328720154
 H    0.9980868365    1.7894978889    0.3366543535
 H   -0.1726742174    1.8415793785   -0.9944059036
 H   -0.7391019796    1.8389325785    0.6885374972
 H   -1.3464149626   -3.0301837846   -0.7257017941
 H   -0.7151671564   -2.9359916775    1.6981625372
 H    0.9555268894   -2.6718333254    1.1261168831
 H   -0.4814075096   -0.3286027994    2.2020483910
 H   -2.3086336986   -0.4639374023   -0.1174742405