16

 C    0.0308025897    1.3642761900   -0.1601168599
 O   -0.0063117147   -0.0339788489    0.0170018414
 C   -1.3114543883   -0.5546665024   -0.0108240805
 C   -1.1999578700   -2.0689911732    0.1967437432
 C   -2.5243091797   -2.7432438353    0.1307738481
 N   -3.1399035433   -3.3072673651    1.1310789740
 O   -4.2983703721   -3.7718480278    0.6081300786
 N   -4.3390760566   -3.4538164870   -0.7468821385
 N   -3.2807169297   -2.8401576685   -1.0293405840
 H    1.0792690013    1.6680536892   -0.1240256159
 H   -0.3945737614    1.6629592213   -1.1306572493
 H   -0.5208283784    1.8899944297    0.6346229073
 H   -1.9326274379   -0.1082931172    0.7839459499
 H   -1.8043449450   -0.3397404818   -0.9731110720
 H   -0.5470297299   -2.4781418118   -0.5807633599
 H   -0.7418489041   -2.2747677711    1.1664247074