24

 C   -0.0766344719    1.4965766479    0.0940940065
 C   -0.1027800267    0.0087701413   -0.2134834900
 O   -1.3611040535   -0.5082616175    0.1662663324
 C   -1.5026366106   -1.8864125128   -0.0941475824
 C   -2.8960858954   -2.3201455843    0.3523016022
 C   -3.1253656461   -3.8081276529    0.1838618510
 C   -4.4998487115   -4.3677509480    0.0376611858
 N   -3.5544157334   -4.4404398626   -1.0693348074
 C   -3.8348980487   -3.6296621947   -2.2439257944
 H    0.8885227455    1.9281656374   -0.1874283984
 H   -0.8644938869    2.0160181667   -0.4587966431
 H   -0.2370223431    1.6702123120    1.1619679639
 H    0.0720790752   -0.1668356710   -1.2889310454
 H    0.7034844137   -0.5133342239    0.3300076931
 H   -1.3573327629   -2.0932330459   -1.1682718978
 H   -0.7329628458   -2.4644735689    0.4474910927
 H   -3.0124325732   -2.0626751547    1.4121586581
 H   -3.6436409800   -1.7337794212   -0.1899884324
 H   -2.3953650820   -4.4187726638    0.7167349030
 H   -4.7755805620   -5.3122067348    0.5004476120
 H   -5.3141700125   -3.6462643036   -0.0370935449
 H   -4.3196084157   -2.6632827184   -2.0352996957
 H   -2.9033445222   -3.4368640503   -2.7863410736
 H   -4.4971928404   -4.1969618861   -2.9060500953