19

 C    0.0802867182    1.5190374811    0.0134424732
 C    0.0164268995    0.0277179587   -0.0528080588
 C   -1.0379913957   -0.7860437324    0.0520687983
 C   -2.4844815175   -0.4609444138    0.2501391504
 C   -0.5420396333   -2.2222747770   -0.0562825827
 O    0.8180614485   -2.1378688856   -0.4079783478
 C    1.2632649617   -0.7934636798   -0.2630019299
 C   -0.7390864572   -2.9563133236    1.2732198193
 O    0.1417297744   -3.2098789131    2.0483975988
 H    0.7288829045    1.8458574210    0.8360044235
 H    0.5078144737    1.9365504600   -0.9067502642
 H   -0.9029043079    1.9704861906    0.1640932077
 H   -2.6601157743    0.6173276552    0.2453939753
 H   -3.1002518894   -0.9050050741   -0.5420970091
 H   -2.8658702602   -0.8530200201    1.2009488074
 H   -1.0939596207   -2.7903897709   -0.8263243379
 H    1.8138776077   -0.4983243816   -1.1686144463
 H    1.9599022552   -0.7077764689    0.5864325313
 H   -1.8007375472   -3.2333694360    1.4811313316