20

 C   -0.0548658612    1.5788261770    0.0829039608
 C    0.0403098494    0.0713176908    0.0401088759
 C    1.3100797783   -0.6823308204   -0.3528580607
 C    2.6436633861    0.0621085276   -0.3256258422
 C    2.9533882039    0.1431154558    1.1848037123
 O    1.6988881920    0.0402342136    1.8626119710
 C    0.8123884623   -0.7250269024    1.0684505444
 C    0.2529817198   -1.9335691773    1.7685278381
 H    0.7858960898    2.0166052697    0.6250770139
 H   -0.0819056258    2.0097565103   -0.9242333850
 H   -0.9694151060    1.8881187035    0.6001765509
 H   -0.8668288090   -0.4197389644   -0.3072247792
 H    1.2097758702   -1.5424250862   -1.0055807185
 H    3.4185377432   -0.4880999712   -0.8661955103
 H    2.5756632629    1.0574386690   -0.7764830345
 H    3.6137471156   -0.6834147627    1.4897667012
 H    3.4211586375    1.0838070144    1.4904810166
 H   -0.3176665361   -1.6390382514    2.6557787110
 H   -0.4159783310   -2.4894898480    1.1047076466
 H    1.0551220782   -2.6060933278    2.0915645176