25

 C    0.0556934418    1.3798455790   -0.1055527345
 O   -0.0114476450   -0.0041335926    0.1401817524
 C   -1.3152649709   -0.5636301612    0.0627335619
 C   -1.8093737202   -0.7179840851   -1.3825927897
 C   -3.1639623733   -1.4406775749   -1.4302246704
 C   -3.1030198300   -2.7967700587   -0.7150895195
 C   -2.6061334655   -2.6590331188    0.7336709050
 C   -2.5163155939   -4.0171487339    1.4362526773
 C   -1.2579429739   -1.9198607745    0.7667490769
 H    1.0850766767    1.6920709585    0.0898910953
 H   -0.1930652239    1.6433926714   -1.1441422192
 H   -0.6161033688    1.9448665967    0.5607366112
 H   -2.0189226089    0.0921620275    0.6080488163
 H   -1.8887427187    0.2600559863   -1.8692229592
 H   -1.0565889500   -1.2921706621   -1.9386097128
 H   -3.9281055793   -0.8126868903   -0.9511450266
 H   -3.4824031651   -1.5716526873   -2.4703626722
 H   -4.0887821748   -3.2771825243   -0.7274864359
 H   -2.4238485250   -3.4666600193   -1.2621983255
 H   -3.3396789569   -2.0442948073    1.2779723314
 H   -1.7980312431   -4.6728512042    0.9298161761
 H   -2.1893624721   -3.9076566827    2.4757481730
 H   -3.4857300616   -4.5270212258    1.4406986456
 H   -0.4901861132   -2.5300746389    0.2711455119
 H   -0.9224944442   -1.7721343276    1.7992559412