19

 C   -0.0056127363    1.4919976885   -0.1367131490
 C   -0.0327882003    0.0003543451   -0.0577011362
 C    0.8282053689   -1.0402904766   -0.7626452556
 C    0.8247388280   -0.9574476186    0.7599208451
 C   -0.3446955574   -1.9820967557    0.8097610778
 C   -0.3421064010   -2.0651191180   -0.7097208766
 C   -1.2179971781   -1.0353417662   -0.0085485622
 C   -2.7004184479   -0.8741918983   -0.0101990615
 O   -3.2342016951   -0.4231357941   -1.2524849438
 H    1.0279213338    1.8562905790   -0.1427187989
 H   -0.4853030564    1.8625161288   -1.0519860471
 H   -0.5120589725    1.9551518433    0.7186000399
 H    1.6439488002   -0.8960006344   -1.4590245259
 H    1.6376069544   -0.7415773295    1.4411567185
 H   -0.6454989235   -2.7177391286    1.5444831130
 H   -0.6376388229   -2.8768432373   -1.3611042296
 H   -3.1683282217   -1.8480866224    0.1752760188
 H   -3.0105013107   -0.2079044739    0.8118144584
 H   -2.8390912217    0.4328097688   -1.4450667052