19

 C   -0.3246227551    1.4417729539    0.0596686028
 C    0.0844996234   -0.0177249094    0.0143592997
 O    1.2917918051   -0.2149571031   -0.7756091688
 C    1.9957795636   -0.8114854147    0.3307722695
 C    0.7792479491   -0.6423839225    1.2296411811
 C    0.6879494012   -0.2789312645    2.6897576118
 O   -0.2755870401    0.6262760167    3.1354907708
 C    0.2105203754   -1.6306344200    2.2016781152
 O   -1.1869508926   -1.7879110734    2.1335523902
 H    0.4634104674    2.0569546839    0.5012514311
 H   -0.5146619192    1.7936193351   -0.9594871636
 H   -1.2361019638    1.5755792670    0.6485183645
 H   -0.7340490503   -0.6354186665   -0.3782238688
 H    2.2920946463   -1.8491859609    0.1236530881
 H    2.8871432112   -0.2348528393    0.6133152679
 H    1.6064058747   -0.2099749060    3.2671902683
 H   -1.1315046766    0.2236768254    2.9309882395
 H    0.7723493726   -2.5369354524    2.4251976995
 H   -1.4802360823   -2.1890382691    2.9596758411