20

 C    0.9002149612    0.5986714592   -0.0382069480
 O    0.7687686791    0.2017860808   -1.3898068195
 C   -0.2536608975   -0.7616018948   -1.5936843791
 C    0.1954509420   -2.1544324790   -1.2159535934
 C    1.3348756092   -2.7912018249   -1.9673344819
 C    2.6925201157   -2.6015505956   -1.2604997893
 O    3.7527490601   -3.2140208404   -1.9720855823
 N   -0.4317848296   -2.6893644199   -0.2368465229
 O    0.0513731435   -3.9720763418    0.0661581429
 H   -0.0218448222    1.0740124292    0.3290677678
 H    1.1378094041   -0.2455506288    0.6232148216
 H    1.7157986863    1.3243776916    0.0018699581
 H   -1.1618092130   -0.5072358587   -1.0309812816
 H   -0.4814412364   -0.7271093349   -2.6652876617
 H    1.1368488576   -3.8642827690   -2.0629511976
 H    1.4061308749   -2.3618233545   -2.9709189242
 H    2.9315706548   -1.5358442641   -1.2187201047
 H    2.6227769818   -2.9779279955   -0.2304724145
 H    3.6174387229   -4.1665062448   -1.9388081071
 H   -0.5351250245   -4.2459587642    0.7793139472