20

 C   -0.0969584996    1.5400313252    0.0140677322
 C    0.0110277945    0.0124956117    0.0327955008
 C    0.7483023494   -0.4842785142   -1.2091918091
 O    0.9632976103   -1.9095580885   -1.2384902131
 C    1.3650372247   -2.5319694979   -0.1030111871
 N    2.1160247848   -3.5515349311   -0.1024764711
 C    0.7866772535   -2.0464726318    1.2179663486
 O    1.5027460456   -2.5719963520    2.3024157021
 C    0.7350383956   -0.5191157655    1.2745451574
 H    0.8943965371    2.0067251283    0.0334493841
 H   -0.6181655307    1.8952269032   -0.8812499407
 H   -0.6496436149    1.8985864102    0.8873966835
 H   -1.0027485653   -0.4111797998    0.0137636631
 H    0.1905060596   -0.2662414955   -2.1232480188
 H    1.7280677526    0.0094760529   -1.2827027799
 H    2.4226807896   -3.7938742237   -1.0445950683
 H   -0.2571521139   -2.4149306011    1.2308682624
 H    2.0083162910   -3.3161462547    1.9376545264
 H    1.7595979867   -0.1269636237    1.3173367441
 H    0.2316720296   -0.2072820419    2.1950513035