19

 C   -0.2670845661    1.3895575869   -0.0160473653
 C    0.0672740877   -0.0987850896    0.0335774268
 C    0.8667618929   -0.5037213543    1.2550009043
 O    1.3453230736    0.2877721232    2.0340667875
 C    1.0412609054   -2.0196717501    1.4711623694
 C    2.2223081697   -2.3330968530    2.3784600805
 O    2.3092870536   -3.7489833517    2.4498462910
 C   -0.2579546367   -2.5767271402    2.0606332521
 O   -1.2779454855   -2.7153357631    1.4380027880
 H    0.6410346818    1.9958260066    0.0258206710
 H   -0.8060667485    1.6313556820   -0.9359398321
 H   -0.8920791963    1.6789129468    0.8332439026
 H   -0.8286148629   -0.7315536569   -0.0023726241
 H    0.6588097698   -0.4009067676   -0.8435077820
 H    1.1670098777   -2.5014884542    0.4951326024
 H    3.1386628227   -1.8838760457    1.9719071777
 H    2.0503596826   -1.8810318048    3.3653998708
 H    2.9928276724   -3.9803144245    3.0856456008
 H   -0.1998443439   -2.8239989198    3.1416761585