19

 O    0.0284778574    1.2253650277    0.5389527903
 C    0.0149061061   -0.1681370883    0.3054159966
 C   -1.3682632091   -0.6299413513   -0.1597097212
 C   -1.5401996153   -2.1582553988   -0.2150053060
 C   -2.1786925316   -2.5011389398    1.1249910240
 O   -1.2443464944   -2.5466345980    2.2315220849
 C   -1.8826110817   -1.4193801312    2.8767259742
 C   -2.7793702422   -1.1769979409    1.6457481919
 O   -2.3740888690   -0.1496082988    0.7627657927
 H   -0.7833667058    1.4135433748    1.0263096956
 H    0.7490704499   -0.3740866442   -0.4822700267
 H    0.3167807927   -0.7400539020    1.1958010681
 H   -1.5925514161   -0.1464103917   -1.1159284044
 H   -2.2151370119   -2.4452202273   -1.0270915022
 H   -0.5928079635   -2.6863896459   -0.3524574620
 H   -2.8152675826   -3.3908703254    1.1013627154
 H   -2.4247376230   -1.7270666870    3.7798099139
 H   -1.1789392876   -0.6170252014    3.1218837861
 H   -3.8529073223   -1.0837212406    1.8190424289