16

 O   -0.3267791491    1.1414146496   -0.8958246369
 N   -0.0401041296   -0.1281194707   -0.3650542380
 C   -0.9989756990   -0.5370218762    0.3687021733
 C   -2.2951297615    0.2099942819    0.5973628898
 O   -3.1831225959   -0.5439405688    1.4033469203
 C   -3.4390439998   -1.8279341232    0.8730390440
 C   -2.1703609575   -2.6818679056    0.7829661892
 O   -2.2001984492   -3.8613543405    0.5430979753
 C   -0.8875658295   -1.8872667570    1.0233192471
 H    0.4523654644    1.3213273523   -1.4323933264
 H   -2.1108859038    1.1529406970    1.1207130450
 H   -2.7481624185    0.4627376202   -0.3749041159
 H   -4.1572166630   -2.3199230387    1.5342054488
 H   -3.8917274991   -1.7736161045   -0.1319827778
 H   -0.0184309048   -2.4418511191    0.6699957393
 H   -0.8026681039   -1.7543192364    2.1125348227