17

 O    0.1004455708   -0.3245957893    0.4876538044
 C    0.0643812836    0.8852415286    0.4922508313
 C    1.1892429367    1.7400282688    0.2209920118
 C    2.1136231987    2.4875727817    0.0003986207
 C    3.2313812149    3.3701404077   -0.2791312892
 C    3.9072880673    3.1222392383   -1.6681966236
 C    4.3738933823    4.5035871995   -2.0567956313
 C    3.8291707670    5.4549263941   -1.3014732265
 C    2.8913601007    4.8940901431   -0.2604830295
 H   -0.8755973534    1.4313854768    0.7145906047
 H    3.9967223962    3.1941722020    0.4869603351
 H    4.7138274725    2.3860966813   -1.5960658132
 H    3.1867515154    2.7280061745   -2.3964786779
 H    5.0451120024    4.6717962912   -2.8913580089
 H    3.9874384256    6.5204432108   -1.4234555164
 H    1.8432274369    5.0702711560   -0.5357404724
 H    3.0302152724    5.3259514447    0.7358505509