17

 N   -0.0471410381    1.3251194112   -0.1374050974
 C    0.1311740350   -0.0139699608    0.0688171639
 O    1.2136135552   -0.4946452195    0.3392252028
 C   -1.1657232852   -0.8142754970   -0.0369536580
 C   -1.9397778619   -0.9406062532   -1.3463608935
 C   -1.3477174130   -2.1703664321   -2.0680259760
 C   -0.2412429637   -2.6885330906   -1.1653017637
 N   -1.1007282953   -2.3253388771    0.0385197245
 C   -2.3087570235   -2.3329700387   -0.9316194838
 H    0.7631789903    1.9226940470   -0.1237976207
 H   -0.9276861949    1.7114649512   -0.4294631744
 H   -1.8329847179   -0.4798913362    0.7666859840
 H   -2.5487567650   -0.2144044277   -1.8718841060
 H   -1.5270033061   -2.3275550556   -3.1246637061
 H   -0.1585504047   -3.7776048471   -1.2036601312
 H    0.7485610985   -2.2325082947   -1.1719854196
 H   -3.2419491696   -2.8537943791   -0.7738722049