19

 C   -0.5608907870    1.2088975217    0.0071577168
 C    0.0833618397   -0.1454074392    0.0917269466
 O   -0.3883940039   -1.0226699266    1.1247397785
 C    0.9881650840   -0.6068809676    1.1530224656
 C    1.9410208133   -1.6539256569    0.6136787910
 C    1.2558829443   -2.1330524705   -0.6854435720
 C    0.4496461840   -0.9033788271   -1.1964661266
 C   -0.6897227602   -1.2428532392   -2.0371218638
 C   -1.6363042607   -1.5196786148   -2.7247327593
 H    0.0674276205    1.9052177653   -0.5587399048
 H   -1.5269521833    1.1377590143   -0.5028428659
 H   -0.7263710845    1.6170970307    1.0069489953
 H    1.2657815137    0.0239396442    1.9946025690
 H    2.9112648357   -1.1832660498    0.4108889289
 H    2.1145574946   -2.4730845688    1.3182321512
 H    1.9614027105   -2.4966031675   -1.4350170897
 H    0.5567177585   -2.9397663962   -0.4619578495
 H    1.1206251077   -0.2440144642   -1.7665204895
 H   -2.4725354769   -1.7685135578   -3.3298306419