21

 O    0.0505187956    1.3945025562    0.3256736626
 C    0.0277310514    0.0086963315    0.0769385015
 C   -1.4015146236   -0.4882549170    0.1330076208
 C   -2.3118335642    0.1548582897   -0.9078565277
 C   -2.2634718735   -0.3601396787   -2.3657114321
 O   -3.6769456018   -0.6447100462   -2.3609431279
 C   -3.7828802152   -0.3135704411   -0.9612121325
 C    1.0163616187   -0.5883816309   -0.8900046303
 C    1.1455356336   -0.8493924489    0.6043960382
 H    0.8946786486    1.7510987895    0.0345934367
 H   -1.4080657200   -1.5785583856    0.0175206466
 H   -1.7965742568   -0.2732952181    1.1349940205
 H   -2.2175116765    1.2401804252   -0.8472274449
 H   -1.9931204032    0.3671978216   -3.1403084566
 H   -1.6659226756   -1.2711830147   -2.5136137998
 H   -4.0043522068   -1.1985341528   -0.3468290915
 H   -4.5512386499    0.4462139502   -0.7747495301
 H    0.7026956192   -1.4031852094   -1.5336059902
 H    1.7443881673    0.0746257609   -1.3496030894
 H    1.9492314945   -0.3468369800    1.1326762017
 H    0.9179616581   -1.8423943214    0.9776545045