18

 O    0.0035746760   -0.1422277371    0.2804664242
 C    0.0098719665    1.0376014312    0.0236784958
 C   -1.3055846075    1.8051242579   -0.1565089460
 C   -1.2316592201    3.1832154930   -0.7877228078
 C    0.0381897806    3.9155047542   -0.9510338870
 C    1.1607281542    2.9029175176   -1.2067358114
 C    0.3531219950    2.4961392803   -2.4724945589
 N   -0.7563342257    3.4634096715   -2.1656546188
 C    1.2998675151    1.8361775867   -0.1182393249
 H   -2.0044785113    1.1485959520   -0.6864848649
 H   -1.7210343182    1.9222903289    0.8540164263
 H   -2.1012897432    3.8018653721   -0.5799249960
 H    0.1672491647    4.9634583443   -0.6999499381
 H    2.1236697409    3.3581333082   -1.4416463247
 H    0.8322058570    2.7935451982   -3.4069678709
 H    0.0361135665    1.4502868938   -2.5611862311
 H    1.5146990022    2.3167150189    0.8468161561
 H    2.1108572273    1.1299261182   -0.3172741016