21

 C    0.0546400206    1.4764808664   -0.0948488973
 C    1.3385776459    0.6825140582   -0.0175188994
 C    0.0157930781   -0.0215342734    0.0203242139
 C   -0.6214997147   -0.7997621693    1.1790656559
 C   -1.4812298802   -1.5600799652    0.1275274729
 C   -0.5859161166   -0.9952651973   -1.0058069552
 C   -1.1286816298   -0.5855617412   -2.3858134930
 O   -0.2313973928   -1.4836385632   -3.0685867454
 C    0.3251492648   -1.9419490911   -1.8202234547
 H   -0.2452404448    2.0570962351    0.7720829395
 H   -0.2012768222    1.9340110607   -1.0453143312
 H    1.9379575462    0.6030303858   -0.9195913723
 H    1.9190970620    0.7270747935    0.8986965085
 H    0.0875982486   -1.4520330820    1.6984267706
 H   -1.1646847748   -0.2138641577    1.9251780641
 H   -1.5218212806   -2.6491667165    0.2124499507
 H   -2.5043571431   -1.1775968323    0.0681301385
 H   -2.1831046382   -0.8376802341   -2.5643421348
 H   -0.9629593169    0.4603591733   -2.6774310347
 H    1.4022041007   -1.7410168298   -1.7515799867
 H    0.1500516177   -3.0147168899   -1.6607754799