16

 C   -0.3014561217    1.1339688170    0.7028805561
 C    0.3128724861   -0.2085546924    0.2863234687
 C    0.7347628560   -0.2323484777   -1.1661666769
 C    0.4554771093   -1.3945537648   -2.0464425356
 O   -0.3034644786   -0.2014723980   -2.1552217809
 C    1.9270528414    0.6076531213   -1.5275689338
 O    2.7018649656    1.0619913852   -0.7238666559
 C    2.1202541160    0.8582358667   -2.9742231026
 N    2.3315896735    1.0575583084   -4.0931671530
 H    0.4245663061    1.9467183421    0.6154868659
 H   -1.1666881614    1.3735030670    0.0780680227
 H   -0.6338398435    1.0929681622    1.7435163552
 H    1.1911264174   -0.4306997244    0.9009739243
 H   -0.4090477525   -1.0161317432    0.4425023985
 H    1.0995552255   -1.6184527808   -2.8946755012
 H   -0.0554423892   -2.2451725186   -1.5986183416