15

 C   -0.0589254105    1.4890020675   -0.0069524058
 C    1.2527015553    0.7088369529    0.0390393236
 C   -0.0525384018    0.0003880560   -0.0797072415
 O   -0.5509668726   -0.8218055798    0.9933142392
 C   -0.9385186055   -1.8170200830    0.0368635378
 C   -1.9805553208   -1.2897879521   -0.8975807731
 C   -0.5150351789   -0.9682387508   -1.1385638951
 H   -0.4008636312    1.9350605579    0.9205813247
 H   -0.3000324538    2.0544124901   -0.9010300326
 H    1.9060579482    0.7397828524   -0.8271974678
 H    1.7630088258    0.6452888062    0.9938586857
 H   -0.7717483759   -2.8559775715    0.2936270785
 H   -2.4018354386   -2.0162469778   -1.5860712022
 H   -2.6658082298   -0.5190378466   -0.5568718959
 H    0.0183593200   -1.2242367615   -2.0437365955