21

 C    0.0817458023    1.2892275642    0.1758670517
 O    0.0168983584   -0.1149670269    0.0204006892
 C   -1.3054220800   -0.6518447095    0.0253486330
 C   -1.2879813625   -1.9724009257   -0.7359652400
 C   -2.7073064268   -2.5510023813   -0.8225512640
 C   -3.4280071364   -2.4734567976    0.4972227055
 C   -3.0102964147   -1.7382425169    1.5262513922
 C   -1.7760319387   -0.8747636525    1.4778770170
 O   -0.7426877522   -1.4960634280    2.2355369520
 H    1.1363409498    1.5696495461    0.1182691546
 H   -0.4672862618    1.8049263193   -0.6255940058
 H   -0.3186217118    1.6273644469    1.1420708347
 H   -1.9905463526    0.0545547936   -0.4696662409
 H   -0.8598801166   -1.8207575262   -1.7308029249
 H   -0.6371039821   -2.6664542886   -0.1941062805
 H   -3.2906126849   -2.0181741201   -1.5889298958
 H   -2.6696363211   -3.5935008149   -1.1613799166
 H   -4.3378937553   -3.0620615040    0.5935221446
 H   -3.5578284699   -1.7434589266    2.4646444274
 H   -2.0188423921    0.1047278031    1.9255290061
 H    0.0790039892   -1.1011053344    1.9123024206