17

 C    0.0392962539    1.5961884427    0.0403235310
 C    1.5596842646    1.8170940325    0.0068382036
 N    1.9736221269    0.8596912239    1.1028756248
 C    1.5756849064   -0.1848909554    0.0967251695
 C    2.0563012853    0.7594999181   -1.0204284911
 O    1.4667183700    0.6377780717   -2.3147860623
 C    0.3148081799   -0.0910539546   -2.3442138364
 N   -0.4041023636   -0.4425367581   -1.3653357163
 C    0.0500359606    0.0316981979   -0.0541409735
 H   -0.3820684789    1.9617744419    0.9783052414
 H   -0.4923378192    2.0493813651   -0.7980778114
 H    1.9438887233    2.8361741217    0.0460044981
 H    2.9937532398    0.8598828166    1.1621063250
 H    1.9325541262   -1.2052759464    0.2240297266
 H    3.1384005624    0.7752445924   -1.1613769890
 H    0.0575301617   -0.3518156636   -3.3680371834
 H   -0.5368319992   -0.4497176266    0.7270805335