18

 C    0.2313345737    1.1297459831   -0.5952479342
 C    0.0078312344   -0.2228869417    0.1200964207
 C    0.5174663094   -0.1279896733    1.5528643389
 O    1.5493261782   -0.6220064739    1.9239376831
 C   -1.4378248949   -0.6214509005    0.1002211224
 N   -2.1689936883   -0.8278098684    1.1180311379
 C   -3.4988401144   -1.2012836208    0.6130892785
 C   -3.3548999391   -1.1645589592   -0.9312231047
 O   -1.9775683718   -0.7713003514   -1.1400302450
 H    1.2986081632    1.3610230102   -0.6355412320
 H   -0.1602014725    1.0856233881   -1.6134227926
 H   -0.2793310821    1.9408517427   -0.0659862432
 H    0.5926105192   -0.9957223866   -0.3904346678
 H   -0.1207416624    0.4776554871    2.2281516778
 H   -3.7733571706   -2.1932816082    0.9858125749
 H   -4.2505472040   -0.4960587491    0.9824273143
 H   -3.5078498633   -2.1355801037   -1.4095160639
 H   -3.9981746646   -0.4249324842   -1.4152672151