20

 C    0.0133565282    1.6122640867   -0.0627970612
 C    0.1354490968    0.1004361001   -0.0671029845
 N    1.4389869360   -0.5383623605   -0.5852542459
 C    2.0462008597   -0.1922015881    0.8015821130
 C    0.6392590493   -0.7503580132    1.1410056101
 O   -0.1209900550   -1.2196235127    2.2085830961
 C   -0.7915215753   -2.4032233267    1.6845492714
 C   -0.3579944872   -2.6388580011    0.1791006933
 C    0.9498463940   -1.8462014837    0.1692484198
 H    0.0979165244    1.9955631245   -1.0854679526
 H   -0.9751959058    1.8922116718    0.3161336775
 H    0.7561298954    2.1249146993    0.5511251771
 H   -0.7240543836   -0.3118501732   -0.5997207227
 H    2.9084531078   -0.8091139317    1.0626976326
 H    2.2621896910    0.8665123094    0.9292936436
 H   -0.5058031327   -3.2530741227    2.3136885650
 H   -1.8725312049   -2.2585133618    1.7720884883
 H   -0.2136092054   -3.7018770364   -0.0238468451
 H   -1.1248407765   -2.2743457890   -0.5050720640
 H    1.8121224037   -2.4789630712    0.3906575085