25

 C    0.0062751060    1.5729896945    0.2520557755
 C   -0.0154427545    0.0710817671   -0.0526580553
 C   -1.4354751466   -0.5244979213   -0.1595818318
 C   -2.1475343502   -0.0671189534   -1.4422504429
 C   -1.4196756412   -2.0642283746    0.0275232363
 C   -0.5596923949   -2.8066611476   -1.0095613083
 O   -0.8857870331   -2.2839956323    1.3353171617
 C   -2.8518876969   -2.6308020277    0.0220224885
 O   -2.7652600480   -3.9725597827    0.5051152969
 H    1.0349093315    1.9345285748    0.3499868197
 H   -0.4722491882    2.1653180175   -0.5347432891
 H   -0.5117342429    1.7907503414    1.1928670224
 H    0.5320179295   -0.1156681781   -0.9855684702
 H    0.5198828639   -0.4600402351    0.7391012505
 H   -2.0061813039   -0.1465628577    0.7002986181
 H   -3.1895078429   -0.3983008282   -1.4832822449
 H   -2.1588919162    1.0245613940   -1.5057763525
 H   -1.6413588054   -0.4396872041   -2.3396222645
 H    0.4886532712   -2.5181236960   -0.9111331491
 H   -0.6362165674   -3.8850752261   -0.8466863251
 H   -0.8849899880   -2.5989650574   -2.0340290841
 H   -1.1525923411   -3.1807167435    1.5752763449
 H   -3.4826029699   -2.0201452089    0.6833774955
 H   -3.2811758885   -2.6141174800   -0.9882088860
 H   -3.6486336224   -4.2768887746    0.7280927737