19

 C    0.0457925612    1.6423907067    0.0451743557
 C    0.0633489319    0.1136770770   -0.0052089804
 C    0.7838956310   -0.5408933548   -1.1726660455
 C    2.2843493653   -0.5248055380   -1.1800696460
 O    2.9233952759    0.3454447798   -0.2886242464
 C    1.5722962528   -1.7509714976   -0.6585470646
 C    1.3954152429   -1.8313457744    0.8453467114
 C    0.6899936744   -0.5256407919    1.2462082293
 O    0.6186862276   -0.0844561294    2.3628362168
 H    1.0626666907    2.0365128485   -0.0063010410
 H   -0.5323893461    2.0566309461   -0.7862004598
 H   -0.4055837769    1.9745618934    0.9839808324
 H   -0.9766449421   -0.2511107637   -0.0152620214
 H    0.2776258170   -0.5802654119   -2.1305957022
 H    2.7662698552   -0.6123189342   -2.1534434614
 H    3.7242106145   -0.0806293319    0.0354881618
 H    1.6267980907   -2.6686263296   -1.2330058552
 H    0.7471135650   -2.6732196514    1.1186046881
 H    2.3209926390   -1.9438625428    1.4178079780