19

 C   -0.1118887156    1.5558686909    0.0393983040
 C    0.0216861902    0.0374283938    0.0040329896
 C    0.9779284030   -0.5420168903   -1.0320422415
 C    2.4170017297   -0.2898111745   -0.4416855693
 C    2.7489211773   -1.7818518820   -0.6706261763
 C    1.2260633929   -2.0201181117   -0.5634192301
 O    0.8369120008   -1.9819627970    0.8240321246
 C    0.8431435382   -0.5978763383    1.1429764013
 O    2.1503318850   -0.0702407570    0.9565279118
 H    0.8642185769    2.0377197134    0.1376115708
 H   -0.5870915977    1.9274520940   -0.8741343870
 H   -0.7297746893    1.8747452094    0.8856621440
 H   -0.9599949681   -0.4435261719   -0.0479279219
 H    0.8213191566   -0.3590843810   -2.0922128567
 H    3.0766122296    0.4970402734   -0.8086185131
 H    3.1190649118   -1.9648150239   -1.6844355128
 H    3.3855142494   -2.2715691653    0.0683306577
 H    0.7512453325   -2.8759477052   -1.0446084039
 H    0.5398094067   -0.4600376769    2.1795446689