17

 C   -0.1691469629    1.4808082956   -0.1471942989
 N    0.0910880222    0.0559547465    0.0113934817
 C    1.4067768353   -0.5270194697   -0.1615679842
 C    2.5243614853    0.3220742235    0.4298899268
 O    3.0787294827   -0.3896304928    1.5502753022
 C    1.8553832856    0.3452721326    1.7494437438
 C    1.8256954102    1.3625957667    2.8447552993
 C    0.7164242956   -0.5130006849    1.1906655177
 H    0.6267111878    2.1428410172    0.2181425746
 H   -0.3248885593    1.6872692373   -1.2107919775
 H   -1.0950749909    1.7272772008    0.3820223654
 H    1.5273739244   -1.3600906828   -0.8444331968
 H    3.1571907968    1.0670141250   -0.0382121755
 H    2.7561339249    1.9361434405    2.8577447723
 H    0.9849211935    2.0515584715    2.7189933170
 H    1.7152831974    0.8754537781    3.8199947918
 H    0.2224831314   -1.3334599052    1.6994891303