11

 O   -0.0177397549    1.2853117550    0.2846627336
 C    0.0892036125   -0.0716639171   -0.0079399920
 C   -1.2834334046   -0.7575469838   -0.2242678549
 O   -0.8816788700   -1.1630044009   -1.5704955552
 C    0.3137401718   -0.4757018773   -1.4839561260
 O    1.1235894750   -0.3107624094   -2.3310534768
 C   -1.6168762931   -1.8925856575    0.6246230771
 N   -1.8764645393   -2.7773310347    1.3200551427
 H    0.8668799580    1.6644617856    0.3306395627
 H    0.7450934382   -0.6211251158    0.6786882258
 H   -2.1054932836   -0.0395130042   -0.2650214070