20

 N   -0.0814921702    1.3137249580   -0.1230569998
 C   -0.0115335776    0.0588469964    0.0452951398
 O    1.2092346801   -0.5674316193    0.1176466779
 C    1.4083697369   -1.6611140718    1.0239020554
 C    0.7296668422   -2.9774302624    0.6392228194
 C   -0.7793353378   -2.8763567161    0.3814410052
 C   -1.1121835597   -2.0428712033   -0.8875160956
 C   -1.2601621420   -0.7828631605    0.0208885924
 C   -1.4790801041   -1.7665279502    1.2161953100
 H    0.8607578438    1.7119369986   -0.1080135634
 H    2.4923479432   -1.8012730069    1.0436237794
 H    1.1051946173   -1.3501565853    2.0311346127
 H    1.2188222185   -3.3973259393   -0.2482622388
 H    0.9224446412   -3.6749679492    1.4650549690
 H   -1.2257329351   -3.8731860028    0.4278436174
 H   -0.3595970338   -2.0055023435   -1.6787931141
 H   -2.0749090649   -2.3245508041   -1.3206407454
 H   -2.0843878484   -0.1055481846   -0.1960906471
 H   -2.5469904836   -1.9683141369    1.3299339233
 H   -1.0760408559   -1.5054696370    2.1974557724