18

 O    0.0664898274    1.4545624344    0.1220243314
 N    0.1712183781    0.0696021376   -0.0524148755
 C   -0.9677852751   -0.5040552412   -0.1919889505
 C   -0.9545689300   -1.9915469851   -0.3153518855
 C    0.2389837275   -2.7886570891    0.0398097905
 N   -0.9424157367   -2.8233467814    0.9207269037
 C   -2.2766835750    0.1985791004   -0.1588045175
 C   -3.3863460298   -0.2066260149   -1.0756135438
 N   -3.4789298614   -0.4977752832    0.3522889844
 H    0.9877718101    1.7161824513    0.2209835153
 H   -1.6229522533   -2.3941398544   -1.0729032513
 H    0.4342045189   -3.7134424132   -0.4947734696
 H    1.1169821181   -2.2448133239    0.3690475289
 H   -0.7682983101   -2.2104857044    1.7158923648
 H   -2.2172702688    1.2387858430    0.1337465199
 H   -4.0636593255    0.5617212354   -1.4376004432
 H   -3.2113859024   -1.0191357657   -1.7751830321
 H   -3.2647282820   -1.4777067654    0.5281250300