16

 O   -0.0273794390    1.3896143654    0.1517759184
 C   -0.0143114560    0.0159043353    0.0410715794
 C   -0.2246684144   -0.7429258382   -1.2411587549
 C   -1.2061615515   -0.9036517630   -0.0965722403
 C   -0.6429682485   -1.8106732755    1.0289307788
 N    0.7439968565   -2.2433075890    0.7043915017
 C    0.5489478585   -0.8891410231    1.1816823398
 C   -1.3382408717   -2.4157107738    2.1630523215
 O   -0.7825916782   -3.1076920767    2.9924898787
 H    0.7665233868    1.7366360292   -0.2717152303
 H   -0.6080600500   -0.1148048777   -2.0394838476
 H    0.4234192550   -1.5560422615   -1.5425763796
 H   -2.2547218988   -0.6493299348   -0.1774581312
 H    1.0326025920   -2.8211991886    1.4978784783
 H    0.9607791951   -0.5236686072    2.1148655359
 H   -2.4224966058   -2.1864060908    2.2316863713