19

 C    0.0418640332    1.4833345563   -0.1259566240
 C   -0.0329475074   -0.0045392169    0.0650309230
 C   -1.2720194125   -0.7876936521   -0.3435122724
 O   -1.1497937629   -2.0702118424    0.2670437897
 C   -0.2937467526   -1.9678798716    1.3840793376
 C   -0.8265982065   -2.2944281520    2.7575984013
 C    0.1181374842   -3.2431148012    2.0382718623
 C    0.5797629185   -0.7798866890    1.1500068400
 O    1.1658542552   -0.7634829169   -0.1620958892
 H    0.9800383274    1.8723904410    0.2765216227
 H   -0.0021009515    1.7402959178   -1.1900695750
 H   -0.7919963717    1.9847876966    0.3760737634
 H   -2.1742889025   -0.2602397611    0.0055593829
 H   -1.3500525601   -0.9382154339   -1.4253071943
 H   -0.4571371201   -1.7390213983    3.6140856801
 H   -1.8704784094   -2.5812948733    2.8129036985
 H   -0.3064388434   -4.1525280171    1.6284672887
 H    1.1380987590   -3.3368912234    2.3944094173
 H    1.1690268930   -0.3462215024    1.9533034375