16

 C   -0.0054532732    1.5585969220    0.0013262461
 C    0.0692590520    0.0401266513    0.0294533180
 C    1.1163820976   -0.6802332966   -0.8689987640
 C    1.3469533659   -1.6864952985    0.2740794870
 O    2.6929544867   -2.0683240199    0.4419815231
 C    0.7186817611   -0.6611343556    1.2579732288
 H    0.9801289567    2.0026090782    0.1810831529
 H   -0.3626611925    1.9219085414   -0.9690094658
 H   -0.6878100961    1.9385349587    0.7701429193
 H   -0.9255943248   -0.3820367419   -0.1524187525
 H    0.8025461687   -1.0631006322   -1.8428025031
 H    2.0134342456   -0.0655743889   -0.9971847028
 H    0.6964788651   -2.5663984521    0.1606717733
 H    2.7421414052   -2.6864118566    1.1781437957
 H    1.5080465792   -0.0389516944    1.6930266046
 H    0.0671948328   -1.0288933848    2.0554355894