20

 C   -0.0832394426    1.5642387776   -0.0147355777
 C    0.0749428892    0.0458678453    0.0253496377
 C    1.0247581691   -0.5677304004   -1.0567883439
 C    1.9502437201   -1.3383654666   -0.0948198289
 C    2.2981763229   -0.3034104800    0.9914290762
 C    0.7923712806   -0.5454526111    1.2746053656
 C    0.1564705972   -0.4032123877    2.6284805860
 O    0.9952497998   -1.9358572850    0.8357047052
 H    0.8815943859    2.0777844094    0.0583822751
 H   -0.5516023241    1.8811729383   -0.9524184440
 H   -0.7160304301    1.9233773010    0.8042546269
 H   -0.9141210557   -0.4199345222   -0.0357548222
 H    0.5075494018   -1.2383440208   -1.7463239296
 H    1.5561756679    0.1909971273   -1.6403600200
 H    2.6734225190   -2.0435435158   -0.5046036214
 H    2.9242354296   -0.7281763501    1.7773256770
 H    2.6467544745    0.6903624667    0.6983775480
 H    0.0907717208    0.6516509777    2.9139425493
 H   -0.8574407851   -0.8178504166    2.6214414388
 H    0.7380929793   -0.9311725771    3.3890446319