22

 C    2.9541743406   -0.6015923991    0.1995636646
 N    1.6387991916   -1.2021817117    0.3805878936
 C    1.4696286040   -2.1717142101    1.4540132399
 C    0.8259812572   -0.8279613328    1.5339606991
 C    1.2573865521    0.2054255996    2.5586028252
 O    1.2549416326    1.5162083440    1.9858100182
 C    0.3963652819    0.1278055232    3.8025230383
 C    0.8196237577   -0.7236129688    4.9744007818
 C    0.8601450371    0.7799265978    5.0771651421
 H    3.5717628927   -0.5700545031    1.1107790114
 H    3.4992821279   -1.1815657255   -0.5518726685
 H    2.8349974205    0.4223075857   -0.1635954093
 H    0.8862212682   -3.0589704965    1.2213230674
 H    2.3183997079   -2.3501567633    2.1150459021
 H   -0.2382152608   -0.7613686890    1.2939074110
 H    2.3005018722    0.0386514530    2.8468666489
 H    0.3569833326    1.7052160268    1.6911106162
 H   -0.6732906524    0.1658420408    3.6021224646
 H    0.0542867614   -1.2624375987    5.5215636951
 H    1.7639356599   -1.2530099559    4.8994619085
 H    1.8290509364    1.2677383074    5.0645842721
 H    0.1232075489    1.2750005364    5.6996708176