17

 O    0.0518540566   -0.0249746743   -0.0283208545
 C   -0.0172110971    1.1767177299   -0.0519664657
 C   -1.3402410407    2.0258720026   -0.0785914073
 C   -0.7940400148    3.4115824728   -0.4051248866
 N   -0.7250085820    4.7709459938    0.3920286576
 C   -0.0370701645    3.9602795991    1.4920352139
 C    0.5896518845    3.3738477516    0.1955991593
 C    0.6932371768    4.8559259972   -0.2480490034
 N    1.0831176852    2.0500572964   -0.0235358287
 H   -2.0285420047    1.6228088417   -0.8223809966
 H   -1.8139319515    1.9136521255    0.9002430226
 H   -0.8529101031    3.6166934150   -1.4766020631
 H    0.5982566057    4.5666812495    2.1418186287
 H   -0.7161446247    3.3412427659    2.0799091123
 H    0.6815579918    5.0770110172   -1.3173961958
 H    1.3599801599    5.5226417366    0.3034335976
 H    1.9606248624    1.6817426393    0.3141138696