16

 C    0.4210653276    0.8352731591    1.3011892130
 C    0.1833318407   -0.0037913746    0.0585866023
 O    0.9678371620   -0.0180084522   -0.8648840044
 C   -1.0996392857   -0.8085818972    0.0559177136
 C   -1.5336746144   -1.6908612976   -1.1426458334
 C   -0.4182418608   -2.7170524798   -0.8315999699
 C   -1.1312441585   -2.3213253554    0.4801244868
 O   -2.4273946765   -2.4354392438   -0.2140953071
 H    1.4146209939    1.2830868508    1.2633292112
 H   -0.3337459515    1.6280130135    1.3646691372
 H    0.3153220625    0.2271216363    2.2066570576
 H   -1.9282842852   -0.2603991701    0.5118453900
 H   -1.9477162234   -1.3777710939   -2.1003136367
 H   -0.6330502111   -3.7322441392   -1.1658400878
 H    0.6143011975   -2.4096803802   -0.9887192336
 H   -1.0547155470   -2.7440339858    1.4826291112