16

 C   -0.0837382992    1.3809619438    0.1312710379
 N   -0.0094889490   -0.0638648380    0.0199585410
 C    0.5739358630   -0.5570262341   -1.0038530377
 N    0.6265296549   -1.9686670599   -1.0774183978
 C    1.2064404177   -2.6333159069   -2.0926109805
 O    1.1496762163   -3.9653304205   -1.9741548948
 N    1.7832879619   -2.0842060346   -3.1191260049
 C    1.7703289983   -0.7085199459   -3.1151385372
 C    1.2158476400    0.0635856536   -2.1462773511
 H    0.9080717039    1.8567474592    0.1725319862
 H   -0.6350667090    1.8447446532   -0.7010172628
 H   -0.6085442498    1.6398026835    1.0547905198
 H    0.1982195016   -2.4746477805   -0.3138948901
 H    1.5958146866   -4.3174999565   -2.7574176927
 H    2.2527791593   -0.2499486909   -3.9736373749
 H    1.2446958333    1.1417697743   -2.2120347303