15

 N    0.0507608825    1.2227741461   -0.6772116743
 C   -0.0000484725    0.1291478363    0.1298748715
 O    0.9101250647   -0.2291259863    0.8461324174
 C   -1.3364226504   -0.6281662272    0.1041642827
 O   -1.1486060643   -2.0312963967    0.3014725060
 C   -1.5686260647   -1.9550197380    1.6784478011
 C   -2.1361549789   -0.5286183393    1.4462611058
 C   -1.8378836363    0.5308266693    2.3915743517
 N   -1.6247606109    1.3832186784    3.1424149523
 H    0.8593454734    1.8212407293   -0.6219893111
 H   -0.7278164610    1.5182900970   -1.2394556607
 H   -1.9161889629   -0.4164235586   -0.8017492513
 H   -2.2986787156   -2.7278419701    1.9339394202
 H   -0.7170062877   -1.9803970285    2.3633546517
 H   -3.2115505755   -0.5489057718    1.2573216770