18

 C   -0.2184137672    1.5773948505   -0.2385594488
 C   -0.0288526632    0.0821353364    0.0115585859
 C    0.8900992174   -0.6140366326   -1.0715407344
 C    2.0976963513   -0.5719981783   -0.0669327387
 C    1.0256286015   -0.4033115298    0.9875812603
 C    0.4479251450   -1.2164987042    1.8828711108
 N   -0.9493865467   -1.1862710700    1.7178179530
 C   -1.3315830343   -0.5290975748    0.5503527238
 O   -2.4687836822   -0.3840821787    0.1632588163
 H    0.7162544392    2.0443405453   -0.5633431328
 H   -0.9745169971    1.7236351233   -1.0160166285
 H   -0.5612610134    2.0908096907    0.6645591062
 H    0.5811396874   -1.6385270631   -1.2851343432
 H    1.0001337064   -0.0569546552   -2.0056388634
 H    2.7345754077   -1.4567842844   -0.0070467760
 H    2.7254891525    0.3109541150   -0.2197201352
 H    0.8902450508   -1.9509872633    2.5430928436
 H   -1.6252976651   -1.5959735270    2.3420483711