20

 C    0.2781532426    1.4799718322   -0.2514034553
 C    0.2309904042   -0.0140124210   -0.0205708716
 C    1.4875319159   -0.8757245772   -0.0367612438
 O    2.7526419886   -0.2648992499   -0.1317997852
 C    3.1856841636    0.0119671016   -1.3826316833
 N    4.3225368546    0.5316827179   -1.5509716562
 C    0.7244121014   -0.6680435107    1.2468094615
 C    1.3288050120    0.1211758011    2.3842153357
 O   -0.0893692683   -1.7417015195    1.6487587332
 H    1.2181020348    1.9189566714    0.0896755949
 H    0.1758370593    1.7090696508   -1.3176186183
 H   -0.5406355180    1.9814036854    0.2746740147
 H   -0.6370733877   -0.5158108622   -0.4396584173
 H    1.4324832072   -1.8607620998   -0.4942316844
 H    2.4632951447   -0.2628558835   -2.1625071787
 H    4.4954101428    0.6720517800   -2.5442425229
 H    1.9999737042    0.9034623755    2.0281570263
 H    0.5401126194    0.5724546107    2.9938814392
 H    1.9184427336   -0.5422711148    3.0285417998
 H    0.4581489750   -2.3524124078    2.1562506717