20

 C   -0.0012443025    1.5644998541    0.1085278557
 C   -0.0295807088    0.0409344691   -0.0532611468
 N   -1.3696514931   -0.5173661683   -0.0291477650
 C   -2.0584629021   -0.8168693418    1.1357058355
 C   -3.3206692585   -1.2230719948    0.7776641462
 O   -4.2817188532   -1.6169525118    1.6668561442
 C   -3.4105129056   -1.1637455487   -0.6390010957
 C   -2.1894860838   -0.7197826959   -1.1121288850
 C   -1.7516283809   -0.4867001872   -2.5216001977
 H    1.0311696433    1.9288487903    0.1072890282
 H   -0.5399880012    2.0558577515   -0.7069472814
 H   -0.4713465179    1.8609493710    1.0504590818
 H    0.4479110128   -0.2483984189   -0.9938605358
 H    0.5447997364   -0.4324872318    0.7500129737
 H   -1.5944054868   -0.7279788865    2.1035533044
 H   -5.0689941908   -1.8557453242    1.1700664563
 H   -4.2624332531   -1.4298831543   -1.2484829942
 H   -1.4694115494    0.5561927646   -2.7140383134
 H   -0.8946884490   -1.1110519492   -2.8053163588
 H   -2.5718064958   -0.7328384372   -3.1999880421