21

 C    0.3075209505    1.5029873042   -0.4740747339
 C    0.0793716567    0.1306881815    0.1606210844
 C    1.0450893370   -0.9365932556   -0.4032095277
 C    0.2238577978    0.1798654558    1.6778545750
 O    0.7438686153    1.1056374228    2.2580726638
 C   -0.3016001834   -1.0378140185    2.4603588320
 C    0.8665045812   -1.8150886466    3.0842020968
 C    1.4388249933   -1.2369612675    4.3574362704
 O    1.2953621381   -2.8132155558    2.5543716285
 H    1.3144485466    1.8670770915   -0.2536941477
 H    0.1897312722    1.4434942773   -1.5602325291
 H   -0.4000042667    2.2431445811   -0.0904047054
 H   -0.9457257882   -0.2074544000   -0.0468790022
 H    2.0836618175   -0.6185296670   -0.2647588959
 H    0.9257198395   -1.9073375155    0.0852119994
 H    0.8713758801   -1.0649187136   -1.4754515207
 H   -0.9520367249   -0.6481221830    3.2496379355
 H   -0.8626152191   -1.7159441440    1.8165669999
 H    0.7050080737   -1.3404091556    5.1660514208
 H    2.3567881056   -1.7581262567    4.6309710088
 H    1.6162962373   -0.1647190748    4.2257028673