20

 C    0.1047696339    1.5304692974    0.1628235599
 C    0.0399121176    0.0772576102    0.1149979563
 C   -0.0147570647   -1.1259460180    0.0868677284
 C   -0.0510185717   -2.5611110351    0.0175304825
 N   -0.7264990997   -3.2961796392    1.1179928460
 C   -1.3103874460   -3.3363331382   -0.2290758613
 C   -2.6564417712   -2.6758567589   -0.4009593434
 C   -3.7960847137   -3.5453487069    0.1379752077
 O   -5.0725523726   -2.9541940001   -0.0487485407
 H    1.1421849726    1.8822919599    0.1422404519
 H   -0.4159903893    1.9835405739   -0.6881675058
 H   -0.3568465326    1.9166189688    1.0783604299
 H    0.8561942281   -3.0121503804   -0.3808497406
 H   -0.2127422929   -4.1513774294    1.3142661563
 H   -1.1756849093   -4.2566257443   -0.7981525696
 H   -2.6471986937   -1.7148928902    0.1258035002
 H   -2.8354917227   -2.4641764334   -1.4618815515
 H   -3.8330093587   -4.4985434600   -0.4022804859
 H   -3.6067868173   -3.7770010154    1.1968201414
 H   -5.0959056462   -2.1439129505    0.4702737779