15

 O    0.0158176240    0.0191565806    0.4953474856
 C   -0.0159090467    1.1348884175    0.0593878682
 C   -1.3359913897    1.9028969792   -0.1187265042
 C   -1.1477112396    3.2072490006   -0.9150943117
 O    0.0278149831    3.8179985133   -0.3558699363
 C    1.0531934652    3.0601581951   -0.9176873196
 O    1.1494175988    1.7741530112   -0.2405811056
 C    0.6027015492    2.8168664688   -2.3483100838
 C   -0.7243123919    2.8968233665   -2.3400622216
 H   -2.0553219668    1.2197248275   -0.5775458394
 H   -1.7018605379    2.1314232917    0.8879328525
 H   -1.9884206290    3.8950720039   -0.8111168922
 H    2.0161195008    3.5411813979   -0.7543108352
 H    1.2638499115    2.5277681049   -3.1525610298
 H   -1.4137593212    2.6847120711   -3.1460245470