23

 C    0.5269631280    1.2587343754   -0.2029159363
 O    0.1974716142   -0.0932514384   -0.0054078969
 C    0.8535225186   -0.6593271543    1.1140557959
 C    0.4420899221   -2.1191261216    1.2076765624
 C    1.0684317158   -3.0132893923    0.0990287312
 C    2.1278492226   -3.5075898091    1.1218122980
 O    3.3391617051   -2.7675661126    1.0888169971
 C    1.2190186750   -2.9747367883    2.2644623751
 C    1.8569482230   -2.3417136421    3.4932944167
 H    1.6067824008    1.3980007873   -0.3742579690
 H   -0.0173185152    1.6058124255   -1.0851584665
 H    0.2382543638    1.8823390290    0.6589135440
 H    1.9450825009   -0.5733231287    1.0012681736
 H    0.5715491050   -0.1171004465    2.0333413597
 H   -0.6479897920   -2.1648021480    1.2839276233
 H    0.3994670839   -3.8147429681   -0.2259328880
 H    1.4514948055   -2.4932880011   -0.7831534218
 H    2.3390523486   -4.5860039785    1.1332575894
 H    3.7634925013   -2.9366704712    0.2415321288
 H    0.5647405542   -3.7955835418    2.5784723351
 H    2.5754947365   -1.5655126356    3.2218844812
 H    1.0956412185   -1.8977873671    4.1439449290
 H    2.3941570837   -3.0952819219    4.0792437782