17

 C   -0.0055873446    1.6978830300   -0.0306433758
 C    0.0281155983    0.1790230986    0.0207373392
 O    1.2329029041   -0.3599149817   -0.5773373821
 C    1.5505263161   -1.1096805712    0.6259256689
 C    0.3270606694   -0.5527650432    1.3679936727
 C    0.5940286772    0.3317843310    2.5566737699
 O    1.6916860359    0.6201299685    2.9630837455
 C   -1.1547804612   -0.4194052144   -0.7345029936
 O   -2.0414398521   -1.0601722291   -0.2349215836
 H    0.8829427270    2.1123081259    0.4523674419
 H   -0.0137461573    2.0320160962   -1.0732764121
 H   -0.8996800962    2.0913971054    0.4644961184
 H    1.5452642988   -2.1888918864    0.4447811514
 H    2.5088335503   -0.7997706690    1.0506891450
 H   -0.4671730629   -1.2641006186    1.6107650521
 H   -0.3203128305    0.7298030517    3.0506075966
 H   -1.1060579924   -0.2301458337   -1.8297692946