19

 C    0.2683445200    1.4784882514    0.2381666481
 C   -0.1616833122    0.0464361284   -0.1038679274
 C    0.5126790087   -0.4852475400   -1.3477936916
 C    0.1677578447    0.1223107400   -2.7158082621
 C    0.3791439131   -1.0194444116   -3.6880044201
 C    0.7011064747   -2.1528594015   -3.0575031531
 C    0.8287633722   -1.9306415077   -1.5874492059
 N    1.8867540199   -0.9772763673   -1.1622304951
 H    1.3530244760    1.5271262879    0.3753141286
 H   -0.0036997487    2.1815035250   -0.5567064910
 H   -0.2070223305    1.8233588157    1.1614122613
 H    0.0842419006   -0.6164273440    0.7323713041
 H   -1.2504457605    0.0028208373   -0.2383464016
 H   -0.8726761947    0.4754878761   -2.7355374403
 H    0.7898049960    0.9952488816   -2.9536896377
 H    0.2970580846   -0.8949742621   -4.7618897863
 H    0.8873849880   -3.1110829144   -3.5284741142
 H    0.6107622997   -2.7213697710   -0.8762959242
 H    2.4673594485   -0.7480296139   -1.9674102715