19

 C   -0.0148721690    1.5689673647   -0.0023517907
 C    1.5293399304    1.4999920789   -0.0024705319
 O    2.1078796633    1.4471135061    1.3037447276
 C    2.1927699134    0.0680995987    1.7262292258
 C    2.4685424342   -0.6932628560    0.4137818640
 C    1.4536419927    0.0196113774   -0.4655000197
 C   -0.0451579068    0.0013298540    0.0433846405
 C   -0.1658103707   -0.5139501048    1.4520502152
 C    0.8775255349   -0.4464925395    2.2805216821
 H   -0.4833591085    2.1029090524    0.8263975501
 H   -0.3932472906    1.9547809139   -0.9541004268
 H    2.0811245747    2.2403204839   -0.5880855119
 H    2.9987403631    0.0179736138    2.4603133115
 H    3.4856585639   -0.5016644330    0.0557906141
 H    2.3146061042   -1.7698648007    0.5099443602
 H    1.5432071863   -0.1542912827   -1.5376057048
 H   -0.7688667806   -0.4745852866   -0.6220210396
 H   -1.1307933727   -0.8890997688    1.7821913272
 H    0.8202254878   -0.7730278017    3.3138103674