14

 N   -0.1138830908    1.4657687921    0.2267813683
 C   -0.0095622733    0.0571704391    0.0115298366
 C   -1.3425308262   -0.6966795979    0.0200405692
 O   -2.0894326073   -0.2227846012   -1.1095501957
 C   -1.1314104576   -1.2550604606   -1.3238119819
 C    0.2460907801   -0.5852857186   -1.4633323480
 C    0.4310205530    0.3475005424   -2.5557677174
 N    0.5867505685    1.1333311498   -3.3899632049
 H    0.7708314209    1.9393447681    0.0799009156
 H   -0.7919104036    1.8681239520   -0.4132057958
 H    0.7158566156   -0.3786907628    0.7032412130
 H   -1.9071955325   -1.0691378167    0.8658853169
 H   -1.4714777736   -2.1797800983   -1.7728335238
 H    1.0664137468   -1.3068385773   -1.4336977721