17

 N    0.0427742837    1.4471096705    0.0135640086
 C    0.0467004351    0.0115354610   -0.0111531498
 C   -0.5086190169   -0.6924153317    1.2226877069
 C   -1.3161514999   -0.6730173139   -0.0300995107
 C    1.1252394755   -0.7436383306   -0.7180918461
 O    1.2143158452   -1.9421561668   -0.7938735694
 O    2.0318348292    0.1227728001   -1.2894088273
 C    3.0889209445   -0.4168919661   -1.9788809755
 N    3.9144872277    0.3760817765   -2.5000695932
 H    0.9006752405    1.7958023076    0.4310340081
 H    0.0215905757    1.8168532371   -0.9323242498
 H   -0.0345525117   -1.6232951548    1.5081381413
 H   -0.7985413939   -0.0300851604    2.0289966247
 H   -2.1607803728    0.0026498308   -0.0843776663
 H   -1.3934083067   -1.5906526100   -0.5999545207
 H    3.0778413285   -1.5068419899   -1.9871881391
 H    4.6436757464   -0.1520039194   -2.9777270916