15

 O   -0.0254414869    0.0019381522   -0.1709277553
 C   -0.0272839728    1.1844104387    0.0095268789
 C   -1.1369606829    2.2713064293    0.0450872983
 O   -1.3935722074    2.6075327741    1.4071490590
 C   -0.3207450131    3.4180501977    1.8193974366
 C    0.2561988582    4.2406641293    0.7205921413
 C    1.0861235706    3.1072482439    1.3567654120
 C    1.0439046981    2.2730706786    0.0415705377
 C   -0.0390988825    3.2995395007   -0.4628784546
 H   -2.0787778409    2.1115636322   -0.4810082664
 H   -0.4589804538    3.8131916267    2.8178585310
 H    0.3787330183    5.3147760212    0.7065455621
 H    1.9380420146    3.1578902881    2.0242651068
 H    2.0065703634    2.1245797699   -0.4472396705
 H   -0.0844162729    3.6427222474   -1.4915071069