20

 C    0.1042928207    1.5287040760   -0.3091553742
 C    0.0683939178    0.0290926269   -0.0908132054
 C    1.2446436461   -0.7699412110   -0.5255711691
 N    0.9807936056   -0.5637560902    0.9111527763
 C   -1.2944826736   -0.6251039013   -0.1289867217
 C   -2.4844768729   -0.1339745715    0.7634869581
 C   -3.4574567100   -0.2676812363   -0.4470831896
 C   -2.2151482736   -0.3891695821   -1.3446824432
 O   -2.0133728607   -0.2211520923   -2.5130641296
 H    1.1360442600    1.8935757108   -0.3254059711
 H   -0.3600487113    1.7945727977   -1.2642871643
 H   -0.4257008317    2.0647936988    0.4862308700
 H    1.1155232948   -1.7908916440   -0.8740746646
 H    2.0725240020   -0.2395559160   -0.9885908841
 H    1.6040000824    0.1543305654    1.2736860978
 H   -1.1676825710   -1.7055252763    0.0067629223
 H   -2.7033827181   -0.7472695255    1.6373096310
 H   -2.3691006351    0.9044359178    1.0804623657
 H   -4.0381070751   -1.1958325843   -0.4349473599
 H   -4.1321995366    0.5621764473   -0.6701119345