23

 C    0.5437860611    1.4673126225    0.1224306035
 C   -0.0775335656    0.0826229588   -0.0375245288
 C    0.4222507356   -0.7071586464   -1.2778774491
 C    1.1349423665   -1.9328139188   -0.7176596163
 C    1.1103530397   -3.2025933166   -1.5351981798
 C    2.3164753915   -1.6386266993    0.2002510370
 C    0.9359734201   -1.8743302445    0.7736702068
 C    0.6203250106   -3.0320320925    1.6795165910
 O    0.2039522749   -0.7224215592    1.1193604459
 H    1.6371621816    1.4170323214    0.1287537390
 H    0.2362550715    2.1188967741   -0.7028930692
 H    0.2174682127    1.9236562071    1.0612352327
 H   -1.1687385238    0.1992739986   -0.0804664545
 H   -0.4202648782   -1.0251713813   -1.9009815396
 H    1.0745897819   -0.0917766298   -1.9077690207
 H    1.6553187192   -3.0735402359   -2.4779331631
 H    1.5783347225   -4.0354494001   -1.0016058939
 H    0.0842450094   -3.4981708589   -1.7841378525
 H    3.0531830852   -2.4282922077    0.3167337128
 H    2.7260281158   -0.6348407960    0.2356279801
 H    1.1981861301   -3.9176186161    1.4025497885
 H    0.8650260483   -2.7808687383    2.7167939741
 H   -0.4449732104   -3.2811062411    1.6352265459