20

 C   -0.0078234947    1.5065601140    0.2529447449
 C   -0.0042940099    0.0121941814   -0.0526071345
 N   -1.3425255606   -0.5513786306    0.0897472018
 C   -1.4203976904   -1.9749663366   -0.1705013216
 C   -2.8503600606   -2.4742313297   -0.0511193673
 C   -3.0992671334   -3.8901511596    0.3527237472
 N   -3.4005707840   -2.8022620349    1.2861691556
 C   -3.7992267131   -1.8377209246   -0.9453489586
 N   -4.5470426458   -1.3642266228   -1.6881717901
 H    0.9888712656    1.9332664756    0.1088486872
 H   -0.7123683764    2.0301363594   -0.3988173370
 H   -0.3022551692    1.6960964504    1.2917328769
 H    0.3166418868   -0.1536978260   -1.0891880485
 H    0.7411336449   -0.4981918977    0.5871334422
 H   -1.7108220661   -0.3414045937    1.0126132338
 H   -1.0588540420   -2.1551938770   -1.1909431760
 H   -0.7901835521   -2.5947637015    0.4994463211
 H   -3.9672298349   -4.4091926728   -0.0401774822
 H   -2.2248117588   -4.5123457663    0.5243727162
 H   -2.6568876651   -2.7182589071    1.9767268388