21

 C   -0.3871376679    1.3602166046    0.0620903686
 C    0.0418977266   -0.0954970310   -0.0186093195
 O    0.3557300296   -0.7004701769    0.9804717495
 C    0.0947870223   -0.7670300831   -1.4118825958
 C    1.4069613236   -0.3474825003   -2.0945252126
 C   -0.0601169400   -2.2964597967   -1.2648795723
 C   -1.5900591159   -2.5165435543   -1.3370144027
 O   -2.1780015048   -1.2526717123   -1.6715442130
 C   -1.1628834729   -0.4475554455   -2.2386870284
 H   -0.0586709695    1.7769858554    1.0149366319
 H   -0.0016961311    1.9609495434   -0.7662469414
 H   -1.4813979368    1.4094991833    0.0201333316
 H    2.2717493507   -0.6781165784   -1.5117534318
 H    1.4755108234   -0.7980507166   -3.0898971184
 H    1.4791226312    0.7385134655   -2.2144927277
 H    0.4480192317   -2.8041197678   -2.0896503060
 H    0.3712515560   -2.6412843073   -0.3251432031
 H   -1.8528864922   -3.2653796606   -2.0967301893
 H   -2.0196901071   -2.8337355373   -0.3823958758
 H   -1.4937426749    0.5927930526   -2.1970870652
 H   -0.9830163218   -0.7033224466   -3.2977768685