17

 C    0.0269343900    1.4706583162    0.0604887175
 C   -0.0278271461   -0.0136597643   -0.0225657900
 C   -0.1121600291   -0.9910114728   -1.1688863817
 C    0.7661200980   -1.9539785940   -0.3388717491
 N    0.8704002419   -0.9560946421    0.7916928348
 C   -0.2390485121   -1.9794558889    0.7589257165
 C   -0.4955465516   -2.9329719947    1.8741177689
 C   -1.1581348581   -1.0128423433   -0.0394332138
 H    1.0173651975    1.8432864752   -0.2231824196
 H   -0.7121874935    1.9180082263   -0.6127987057
 H   -0.1867390937    1.8143075339    1.0787151612
 H   -0.2584199073   -0.8350992916   -2.2285922346
 H    1.5805268267   -2.6245863977   -0.5892971293
 H   -0.9951012401   -2.4333739137    2.7119033373
 H   -1.1273325557   -3.7665224773    1.5473624236
 H    0.4515539296   -3.3412110813    2.2407984223
 H   -2.2293604265   -0.8767928801   -0.1001945483