19

 C   -0.0637782916    1.4972166512   -0.3155651912
 C   -0.0651451434    0.0423265949    0.1564803712
 N   -1.3852766730   -0.5635395534    0.1085224151
 C   -1.9176622226   -1.3104432971   -0.8964077955
 C   -3.2240356192   -1.5766371583   -0.5274158844
 O   -4.0922709473   -2.3129587934   -1.2656553197
 C   -5.3789671824   -2.4767020241   -0.7004929926
 C   -3.3872806470   -0.9379469556    0.7210867224
 N   -2.2607386291   -0.3221127318    1.0932613435
 H    0.9439058820    1.9174581832   -0.2405300755
 H   -0.3922635468    1.5725645827   -1.3564461802
 H   -0.7376381238    2.0944710108    0.3036688734
 H    0.6003069769   -0.5700464161   -0.4591911529
 H    0.2783354139   -0.0244413364    1.1919458009
 H   -1.3530965560   -1.5999516457   -1.7669960124
 H   -5.9538682408   -3.0809812954   -1.4042187400
 H   -5.3301943075   -2.9955153576    0.2664788341
 H   -5.8815216804   -1.5103168789   -0.5585923723
 H   -4.2539512020   -0.9051201889    1.3623925359