18

 C    0.0301503391    1.4497912883    0.0828291768
 N   -0.0553515739    0.0172790604   -0.0943162515
 C   -1.2213105662   -0.6792499270   -0.0365942465
 N   -2.3663275075    0.0160136144    0.0443388956
 C   -3.4838533798   -0.7090874939    0.0654070947
 C   -3.5137989247   -2.0997249080    0.0162566236
 C   -4.7917532388   -2.8943431020    0.0376957863
 C   -2.2502815006   -2.6985026232   -0.0509050649
 N   -1.1099384057   -2.0245969320   -0.0776423300
 H    1.0505481405    1.7689597078   -0.1407928887
 H   -0.6565788998    1.9587195012   -0.5980891298
 H   -0.2219761407    1.7644433749    1.1044085919
 H    0.7773687113   -0.5438190142   -0.0372955429
 H   -4.4149142538   -0.1457287140    0.1300789202
 H   -4.9486101731   -3.4417335264   -0.8992181163
 H   -4.7981444456   -3.6335141081    0.8466296434
 H   -5.6556596282   -2.2390231735    0.1826232304
 H   -2.1621314825   -3.7848826949   -0.0814746622