15

 N   -0.0575105509    1.3226823427   -0.1556593678
 C    0.0341101182   -0.0453036268   -0.0147808598
 O    1.1002151398   -0.6121061184    0.1401390394
 C   -1.2543833007   -0.7747451320   -0.0249498348
 C   -2.5164036506   -0.2898810587    0.1338229238
 O   -3.4199994005   -1.3149074042    0.0913528203
 C   -2.7127148640   -2.4630747170   -0.0924084696
 N   -3.4816014496   -3.6051322959   -0.2449361450
 C   -1.3796358347   -2.2013631243   -0.1634406440
 H    0.8218109512    1.7984424286   -0.2897554571
 H   -0.8532526821    1.7137164253   -0.6329498143
 H   -2.9291040699    0.6841891957    0.3339651697
 H   -4.3180866975   -3.5969106322    0.3251053629
 H   -2.9526039501   -4.4530789828   -0.0963621950
 H   -0.5696686986   -2.8986914399   -0.2941230787