19

 C    0.3553816275    1.4055239805    0.3746903104
 N   -0.1948775492    0.1729507253   -0.1997662020
 C    0.5727079499   -0.4107639724   -1.2422716295
 C    0.2405877038   -0.3167331334   -2.5638209730
 N   -0.7800022408    0.3681483801   -3.2030515135
 O    1.1387017069   -0.9601740321   -3.3378095392
 C    2.0786179293   -1.5035860423   -2.4849301469
 C    1.7945845967   -1.1920787108   -1.1973417236
 C    2.5596484684   -1.5966507696    0.0233029125
 H    1.3572605221    1.2920718742    0.8186230327
 H    0.4235360289    2.1656256640   -0.4089757394
 H   -0.3232344163    1.7760072258    1.1500203238
 H   -0.3736722482   -0.4984293462    0.5391285145
 H   -1.4990662287    0.6105978134   -2.5308730489
 H   -1.1717522789   -0.1428929550   -3.9852044988
 H    2.8576574989   -2.0745640061   -2.9608862476
 H    2.9744556426   -0.7295385214    0.5505765748
 H    1.9235393150   -2.1301303298    0.7401294745
 H    3.3917617722   -2.2579686141   -0.2337204709