21

 C    0.0299723687    1.5558049851   -0.0677948333
 C    0.0274207280    0.0468053664    0.0126786141
 C    0.4999773831   -0.7271943201   -1.2201446200
 O    0.3581489369   -2.0873581768   -0.7723841532
 C   -0.1363861306   -1.8978797689    0.5480427313
 C    0.7100054988   -0.7584905999    1.1841850970
 C   -0.0398978610   -0.3585994627    2.4552277409
 C   -1.5043551361   -0.3852036467    1.9105709054
 C   -1.2285548942   -0.7936929919    0.4632010096
 H    1.0386192398    1.9390203564   -0.2615631732
 H   -0.6178995381    1.9089209236   -0.8785590709
 H   -0.3240534769    2.0145928544    0.8603082456
 H   -0.1254209135   -0.5514456544   -2.1052544417
 H    1.5456638131   -0.5211105736   -1.4837738270
 H   -0.2994329019   -2.8608946806    1.0334483082
 H    1.7973335632   -0.8503267484    1.2284234934
 H    0.1196809706   -1.0721070864    3.2694121461
 H    0.2564298466    0.6275861857    2.8251442348
 H   -2.1341656395   -1.1130741635    2.4311481351
 H   -2.0016531492    0.5865527468    1.9853584679
 H   -2.0770465176   -0.9206853145   -0.2125259900