19

 C   -0.0311113727    1.5548346354    0.0725525752
 N    1.3472040483    2.1130929947    0.0444789859
 C    2.3347783366    1.0293647415   -0.0036153056
 C    2.0699439763    0.1228217290    1.2104018771
 O    0.7671546899   -0.4693805551    1.1148976218
 C    0.0351906755    0.0281872428   -0.0179236046
 C    0.7888429907   -0.4209444768   -1.2667589138
 N    1.1806661459    0.6266015563   -2.2386058333
 C    2.1593872137    0.1410063928   -1.2458779849
 H   -0.5265751331    1.8216851327    1.0141449132
 H   -0.6240617956    1.9568348125   -0.7536201041
 H    1.4443687796    2.6505488278   -0.8093961105
 H    3.3400131300    1.4567381776    0.0605850358
 H    2.8153600139   -0.6812738291    1.2661632669
 H    2.1276535334    0.7179728628    2.1303600190
 H   -0.9583420025   -0.4189870831    0.0614951555
 H    0.6101638359   -1.4282724565   -1.6292531239
 H    1.3691812230    0.1866252821   -3.1357614273
 H    3.0047531112   -0.4516885675   -1.5851568724