14

 N    0.0982989520   -1.1788253329   -0.0427352818
 C    0.1063642791   -0.0262334206   -0.1080777301
 C    0.1144753005    1.4337865199   -0.2179970219
 N    1.3798114765    1.9829918053    0.2356877745
 C    1.5407200674    3.3584930263    0.1466978417
 C    0.6121290311    4.3788545547    0.1542516416
 N    1.3881536794    5.4976091827    0.0990494339
 N    2.6881205182    5.2031626024    0.0530244011
 N    2.7890922259    3.9016230127    0.0786029719
 H   -0.1360575094    1.7052585972   -1.2580922776
 H   -0.6940481391    1.8241637320    0.4131327283
 H    2.1943395895    1.4885132246   -0.1038816148
 H   -0.4617456178    4.4153145932    0.1971864107
 H    1.0998914767    6.4627862924    0.0845365325