21

 C   -0.0227232601    1.5579260450   -0.0431559742
 C   -0.0132825298    0.0505717373   -0.0574808487
 C    0.4945443122   -0.7958200028   -1.2423373519
 C   -0.3027194185   -1.9410965441   -0.5725193930
 C    0.4232015329   -2.2296889615    0.7537592693
 C   -0.6909821228   -2.5681158877    1.7762723065
 C   -1.0972480250   -1.0967335982    1.5806540646
 C    0.3869076936   -0.7240514446    1.2414033112
 C   -1.2861720113   -0.8678378385    0.0510978365
 H    0.9984451751    1.9582912284   -0.0218611297
 H   -0.5193702754    1.9637165728   -0.9316389574
 H   -0.5458187943    1.9466361495    0.8382639104
 H    0.0439466218   -0.4726848831   -2.1868879673
 H    1.5742480909   -0.9291794308   -1.3789875605
 H   -0.6653353065   -2.7972293704   -1.1424295546
 H    1.3493477505   -2.8035417153    0.7033316226
 H   -1.4055990228   -3.3576875866    1.5180876856
 H   -0.2909824135   -2.7480387179    2.7790011279
 H   -1.7275436810   -0.5475867249    2.2795468837
 H    1.1183871803   -0.3683877122    1.9662803150
 H   -2.2381462663   -0.6580782243   -0.4349037859