13

 C   -0.1405115568    1.5155622675   -0.0176649598
 C    0.1377288782    0.0217059496    0.0818667101
 O    1.2361565451   -0.4403934991    0.2475912422
 N   -1.0270512727   -0.7476187000   -0.0281907865
 C   -1.1057913679   -2.1513883271   -0.1332859829
 N   -2.4205860480   -2.5911023918   -0.0382258627
 O   -0.1714884764   -2.8808713204   -0.3409598576
 H    0.7908104420    2.0534220667    0.1542754190
 H   -0.5261557994    1.7700885257   -1.0108834157
 H   -0.8844223841    1.8321778301    0.7213060033
 H   -1.8915759449   -0.2408274579   -0.1406660270
 H   -3.0447330741   -2.1000537320    0.5844798962
 H   -2.4859231511   -3.5965251613    0.0217280015