24

 C    0.1966158362    1.6211072810   -0.0165354749
 C    0.0511198351    0.0937761159   -0.0711595640
 C    0.8049683433   -0.4807113555   -1.2785008813
 C    0.5330968993   -0.5955209888    1.2237839019
 C   -0.1686720185   -0.2069579445    2.5148662532
 C   -1.6768074914   -0.4431367829    2.5750852700
 O   -2.2418790260    0.0355263726    3.7745211258
 C    0.5942539770   -0.2887965670    3.7858663464
 N    0.2190298158    1.0284220676    3.2288646446
 H    1.2474818660    1.9079244656    0.1194510107
 H   -0.1464778012    2.0778790059   -0.9505838218
 H   -0.3809151056    2.0605134813    0.8014640753
 H   -1.0131888092   -0.1382494768   -0.2073587081
 H    1.8803538837   -0.2790185248   -1.2014574264
 H    0.6750634728   -1.5654535853   -1.3540902735
 H    0.4508112542   -0.0341220907   -2.2131773065
 H    0.4339843291   -1.6825611452    1.0957231998
 H    1.6096578768   -0.4053263975    1.3425239786
 H   -2.1538677789    0.0281608573    1.7002286467
 H   -1.8855081062   -1.5186110964    2.5191510394
 H   -1.8176254204    0.8937560793    3.9250163815
 H    0.0778670700   -0.5485287546    4.7040063755
 H    1.6376330037   -0.5887400028    3.7368772332
 H    1.0172758745    1.4691046561    2.7814904340