15

 C   -0.0709213207    1.5407890257    0.0205586259
 C    0.1592347818    0.0612623097   -0.0169264684
 O   -0.6796922844   -0.7882736319    0.7853150416
 C    0.7219734119   -0.7710762238    1.0841524745
 C    1.4201515914   -1.9656666459    0.4774295524
 O    2.2622731285   -2.6347938545    1.0137210951
 C    0.9296204818   -2.0799138706   -0.9700573772
 C    0.4845334844   -0.6555844964   -1.3178958953
 O    0.4588119551   -0.1491257018   -2.4077407715
 H    0.8146909747    2.0723260459   -0.3386593794
 H   -0.9061879579    1.8062868890   -0.6335118879
 H   -0.2995550200    1.8679138355    1.0370294173
 H    1.0181625297   -0.3664167139    2.0471707684
 H    1.7026852297   -2.4514589945   -1.6438473060
 H    0.0706881640   -2.7585684825   -1.0197198894