25

 C   -0.0661727746    1.4679474088    0.2373331070
 C    0.1085276184   -0.0410564186    0.0374221483
 C    0.7736577786   -0.4514033189   -1.2912710925
 C    2.2197407711    0.0571790370   -1.3877837024
 C    0.6887387668   -1.9793506191   -1.4678430330
 C    1.1313819205   -2.5051272703   -2.8410333646
 C    0.9377278388   -3.9968019220   -2.9658804803
 C    1.8583672990   -4.8551707083   -3.7203785877
 O    1.8934626705   -4.8242776910   -2.2925241169
 H    0.8932697628    1.9903722997    0.2976271216
 H   -0.6352914197    1.9126507554   -0.5872177890
 H   -0.6095194529    1.6774037880    1.1642140177
 H    0.6920987978   -0.4565455706    0.8708333454
 H   -0.8777102167   -0.5195538380    0.0930683963
 H    0.1955251814    0.0112837637   -2.1066613006
 H    2.2729968868    1.1439046285   -1.2782819590
 H    2.8405395512   -0.3890507788   -0.6011433738
 H    2.6756533855   -0.1908726843   -2.3505507093
 H    1.2900248631   -2.4718679188   -0.6921446595
 H   -0.3494266869   -2.2935882309   -1.2935097514
 H    0.5547451290   -2.0071510237   -3.6332784704
 H    2.1873495442   -2.2784912660   -3.0215253712
 H   -0.0920114477   -4.3440300719   -2.8519812337
 H    1.5008868918   -5.7852079400   -4.1608810719
 H    2.7188194712   -4.4089353601   -4.2182550591