18

 C   -0.2265413417    1.3098562363    0.0905672070
 O   -0.0048656865   -0.0795388323   -0.0497848959
 C    0.7509183191   -0.5233182437   -1.1659893077
 C    0.1219200573   -0.1138396573   -2.5147201292
 C    2.2257941403   -0.1143666281   -1.0806876070
 C    0.6437736886   -2.0541803944   -1.0860613630
 O    1.4479024187   -2.8160278130   -1.5562708460
 C   -0.5723861227   -2.5795549906   -0.4276980415
 N   -1.5108513972   -3.0651440061    0.0417426060
 H    0.7113539916    1.8770606408    0.1531646051
 H   -0.8359156924    1.7202861504   -0.7246810045
 H   -0.7721585988    1.4349907760    1.0279790794
 H    0.2063473678    0.9654434835   -2.6658863701
 H    0.6444603649   -0.6113491888   -3.3358611516
 H   -0.9360809961   -0.3896417225   -2.5507163363
 H    2.6165914652   -0.3219255032   -0.0810834190
 H    2.8108303631   -0.6819042184   -1.8068532552
 H    2.3474486090    0.9506897313   -1.2933392304