13

 O    0.5781352844    2.4968825629    1.4022027800
 C    0.1987203041    1.9645486918    0.3842632802
 N    0.9792166002    1.1969452062   -0.4386668256
 C    2.3221338457    0.9145207516   -0.2295570755
 C    3.2278127229    1.2463920760    0.7297248743
 C    4.4495923631    0.6087427587    0.3240195040
 C    4.1884735535   -0.0481579180   -0.8315587804
 O    2.8748275230    0.1314959123   -1.1877187178
 H   -0.8353507819    2.0394079759   -0.0006123880
 H    0.5644821993    0.7969304257   -1.2668793656
 H    3.0365244071    1.8570811131    1.5933118369
 H    5.3972210812    0.6434329141    0.8382687076
 H    4.7683012774   -0.6567751902   -1.5034986801