19

 C    0.3485424761    1.1260286207    0.3583182945
 O   -0.3397499410    0.0703883598   -0.2991520225
 C    0.3982708043   -0.5303100020   -1.2945383244
 C    1.3892331949   -1.6569310271   -0.9387588797
 C    1.5706125950   -2.0404901501    0.4273082699
 N    1.7294010456   -2.3499906504    1.5318136789
 C    0.0573402412   -1.9366507257   -1.6617876903
 C   -1.0508712852   -2.6510429147   -0.9146723318
 N    0.2502289851   -2.2383104417   -3.0625222434
 H    1.2490018938    0.7599685075    0.8660381239
 H    0.6311023675    1.9162527382   -0.3517416493
 H   -0.3405549093    1.5374643967    1.0977659090
 H    0.7315299172    0.1247593344   -2.1000507183
 H    2.2752571348   -1.7263213614   -1.5594604359
 H   -1.1230804619   -2.3222733504    0.1228040682
 H   -2.0120215667   -2.4511166263   -1.4009454606
 H   -0.8811106626   -3.7330714892   -0.9258659498
 H    0.3948576225   -3.2376125338   -3.1847463671
 H   -0.5908821714   -2.0014108043   -3.5831728313