18

 N    0.0320257870    1.3756273629   -0.6473389055
 C    0.0336359899    0.0406978178   -0.1438571929
 C    0.5901285915   -1.0193355262   -1.1413847514
 C   -0.8069245615   -1.7035429011   -1.2339545217
 C   -1.2864057138   -0.8442592810   -0.0427815618
 N   -0.7737004425   -1.3634749557    1.2581532104
 C    0.2605048282   -0.2994871544    1.3502542089
 C   -2.6175656810   -0.2853742753   -0.0253113104
 N   -3.6785857767    0.1762429147    0.0137483168
 H   -0.2729566822    2.0488695468    0.0478798851
 H    0.9535429493    1.6496942833   -0.9719439777
 H    0.9421099331   -0.5857723329   -2.0791370694
 H    1.3762185304   -1.6467177033   -0.7172586273
 H   -1.3300641193   -1.4495140501   -2.1582582857
 H   -0.8513089469   -2.7799702775   -1.0638242284
 H   -1.4608023477   -1.3602405537    2.0026009752
 H    1.2517564807   -0.6595461868    1.6496312734
 H   -0.0213413086    0.5458542925    1.9949326926