15

 C   -0.0589594000    1.4184554930    0.0184208225
 C    1.3620122514    2.0879924768    0.0453233852
 C    2.2052705719    1.5329062503   -1.1273004240
 C    2.8093880394    0.1016481941   -1.3715465627
 O    2.2558005768   -0.9675992125   -0.5434022539
 C    1.0209283340   -0.3421257567   -0.7641611704
 N    0.2451302013   -0.0152137458    0.1700667359
 C    1.5087537429    0.4811174339   -1.9582491027
 H   -0.6802689677    1.7477871501    0.8533220293
 H   -0.5695732810    1.6815572795   -0.9188249385
 H    1.2816617778    3.1763797957   -0.0589693140
 H    1.8202407915    1.8830678579    1.0170943439
 H    2.7598805732    2.2806452174   -1.6918885163
 H    3.7885175402   -0.0756683601   -1.7967832164
 H    1.1279940481    0.5353406463   -2.9681115077