22

 C   -0.3280614921    1.4663620478   -0.0219977671
 C    0.0681233715   -0.0061767082    0.0420867084
 C    0.9038217090   -0.5005664735   -1.1431864640
 O    1.5203079904   -1.7002022022   -0.7091808608
 C    1.6995793227   -1.6799718948    0.7277011306
 C    1.0322646701   -2.9435162726    1.2801679611
 C    3.2007058952   -1.6784244008    1.0283845214
 C    0.9963853485   -0.3849209908    1.2081818573
 H    0.5579141658    2.1092955718   -0.0799313548
 H   -0.9496773955    1.6742220489   -0.8996654191
 H   -0.8982480765    1.7642604562    0.8637755813
 H   -0.8391984608   -0.6212740671    0.0962384113
 H    0.3115044931   -0.7232754717   -2.0370908684
 H    1.6577275229    0.2582702925   -1.4191999701
 H    1.4349355348   -3.8289576717    0.7796919522
 H    1.2091945025   -3.0436365906    2.3562284414
 H   -0.0480460062   -2.9202689824    1.1076900979
 H    3.6843584841   -0.8141879747    0.5631145119
 H    3.3842046218   -1.6342375546    2.1075229637
 H    3.6719857275   -2.5847983164    0.6364512600
 H    1.7332194196    0.4121411402    1.3649404758
 H    0.4639890115   -0.5296377653    2.1520893602