17

 C   -0.0665253043    1.5686906688    0.1516337020
 C   -0.1470021409    0.0580045305    0.3085574695
 C   -1.3667665810   -0.6665334911   -0.1199805942
 N   -0.1051388044   -0.8185669353   -0.8687338845
 C    1.3252866949    2.0577839508   -0.0828644613
 C    1.9648702653    2.6026016860   -1.1540610383
 C    3.2881466279    2.8093786402   -0.6815112842
 N    3.4376195132    2.4265839798    0.5614711924
 O    2.1859975259    1.9470829080    0.9460995411
 H   -0.6939740612    1.8887851313   -0.6872251127
 H   -0.4663648624    2.0462702048    1.0550154675
 H    0.4189033975   -0.3293833499    1.1525613336
 H   -1.6935744088   -1.5541367081    0.4138544522
 H   -2.1722961894   -0.0854155389   -0.5633398474
 H   -0.1361530861   -0.2608890067   -1.7196457411
 H    1.5575891534    2.8257885569   -2.1258905853
 H    4.1366951403    3.2265180530   -1.2055234094