15

 N    0.0658144537    1.1486837477   -0.5418810301
 C    0.0587120168   -0.0213397038    0.1509991589
 O    0.9880973636   -0.4346858045    0.8198881495
 C   -1.2241251210   -0.7673565978    0.0075736753
 C   -1.7613354394   -1.6760214733    1.1268291148
 C   -1.4635238725   -2.2649163348   -0.2011729849
 N   -2.4921310258   -1.9397643746   -1.1977402252
 C   -2.3307015677   -0.5593149583   -1.0073240779
 O   -2.8498564112    0.4000569775   -1.5134684733
 H    0.8716756439    1.7473408330   -0.4675921141
 H   -0.7628840940    1.4766249825   -1.0154022581
 H   -1.0217263506   -1.8439532438    1.9041122427
 H   -2.7882020152   -1.5592871709    1.4595826350
 H   -0.7080632226   -3.0106461411   -0.4064280882
 H   -3.3891142981   -2.4053643879   -1.2715635642