20

 C   -0.3754986940    1.4452862728    0.4709141975
 O    0.0017155591    0.1495722202    0.0370183351
 C    0.6411956324   -0.6007405894    1.0377808213
 C   -0.1881913304   -1.4551564954    2.0572599952
 C   -0.5887561030   -2.4062531832    0.8691385722
 O   -1.5275018660   -2.0645428966   -0.0977059591
 C    0.9439103219   -2.0866330920    0.7239916941
 N    1.1086242714   -2.2143452301    2.2245241827
 C    1.0995988197   -3.5366620771    2.8451855216
 H    0.4969791597    2.0065935944    0.8332650398
 H   -0.8012099012    1.9634157709   -0.3907382260
 H   -1.1242845137    1.4032543378    1.2736460714
 H    1.4730600229   -0.0492248418    1.4898594051
 H   -0.7720918331   -1.1216857871    2.9175365549
 H   -0.8131074816   -3.4294794137    1.1657623367
 H   -1.3000413025   -1.1756234169   -0.4052336287
 H    1.6814282307   -2.4850796909    0.0247452123
 H    2.0722382203   -4.0047211718    2.6616804373
 H    0.9980610255   -3.4019351337    3.9270395131
 H    0.3209643318   -4.2408654364    2.5202166036