17

 C   -0.0383723601    1.5579483732    0.0429178462
 C   -0.0322861560    0.0187695938    0.0103508204
 C   -1.3950728557   -0.5046454197    0.0218870479
 C   -2.5310629484   -0.8966008869    0.0148733039
 C    0.7513020486   -0.5293783888   -1.2413658778
 C    2.1190381843   -0.0026024507   -1.2892448934
 C    3.2383519766    0.4322157990   -1.3183443819
 C    0.7648616079   -1.9943334520   -1.2702122609
 C    0.7822696677   -3.1945951453   -1.2820943205
 H    0.9828005495    1.9440609642    0.0664661230
 H   -0.5463810911    1.9602279009   -0.8389741302
 H   -0.5713393974    1.9104383942    0.9289800463
 H    0.4974833958   -0.3526773393    0.8956628012
 H   -3.5283192326   -1.2613899917    0.0191304048
 H    0.2102492567   -0.1707189454   -2.1285958250
 H    4.2305515007    0.8095173012   -1.3537183332
 H    0.7924426035   -4.2563405669   -1.2975254808