17

 C   -0.0280887345    1.3728066999    0.0400515865
 O   -0.0281229657   -0.0381124410    0.0631036732
 C    0.6142157159   -0.5858177077   -1.0674294425
 C    0.5925247790   -2.0392006228   -1.0048327843
 C    0.5929874170   -3.2455000232   -0.9856707562
 C    0.5896434197   -4.6968341595   -0.9556732411
 O    1.0861106077   -5.3684281069   -1.8282664159
 C   -0.0959699244   -5.2803367731    0.2743940046
 O   -0.0506359090   -6.6791177724    0.2168457895
 H    0.9947631313    1.7809080905    0.0360841105
 H   -0.5598622462    1.7666412130   -0.8402329098
 H   -0.5406300916    1.7079456383    0.9438465854
 H    0.1215154324   -0.2558399911   -1.9992128700
 H    1.6617158500   -0.2414842443   -1.1310547216
 H    0.4157725711   -4.8647153743    1.1598359976
 H   -1.1241650193   -4.8790320051    0.2946740397
 H   -0.4878813335   -7.0234519206    1.0009192744