16

 O    0.0247744218   -0.0615076608    0.0146685601
 C   -0.0041128758    1.1518517991   -0.0014189929
 N   -1.1063599111    1.9491974241   -0.0277364268
 C   -0.8679510971    3.3812103813    0.0679268374
 C    0.6415950469    3.4754645104    0.3984736517
 N    0.8935967445    3.6500721894    1.8428326824
 C    1.6424761787    2.6756135918    2.1954621185
 N    2.0668133482    1.7907325386    1.2143199644
 C    1.2230979182    2.0811458939    0.0523495944
 H   -2.0283126989    1.5421025124   -0.0397103299
 H   -1.1092965033    3.8899601702   -0.8737777216
 H   -1.4566321376    3.8358556414    0.8698830813
 H    1.1056375520    4.3004020547   -0.1491368334
 H    1.9985094402    2.5392366391    3.2127993524
 H    2.1597801659    0.8116251372    1.4575247545
 H    1.7855341475    2.0210685973   -0.8822194823