22

 C    0.7180476373    1.4134036801   -0.4520203580
 C    0.0508383607    0.1077457887    0.0041018138
 C    0.2340981525   -1.0309332702   -1.0195163627
 C    1.6228724273   -1.6326328349   -0.7300317986
 O    2.5584173376   -1.0138044397   -1.6158680874
 C    1.9057971784   -1.2978087647    0.7619077527
 C    0.6696766338   -0.5224034784    1.2808649449
 C    0.9658275497    0.4279762205    2.4401651414
 H    1.7786730943    1.2671162561   -0.6734344528
 H    0.2438175274    1.7773635525   -1.3696371313
 H    0.6227938237    2.2002855543    0.3026179835
 H   -1.0144226568    0.3083500774    0.1700116362
 H   -0.5296872983   -1.7996160872   -0.8561472261
 H    0.1635720707   -0.7077868639   -2.0614817723
 H    1.6250006101   -2.7178055113   -0.9046763047
 H    3.4359225641   -1.3377285749   -1.3886865380
 H    2.1066842404   -2.1907049359    1.3622736357
 H    2.8016905615   -0.6680523134    0.8125529381
 H   -0.0570424061   -1.2660345559    1.6371975575
 H    1.7150567618    1.1771494184    2.1641373049
 H    0.0634518213    0.9594252474    2.7623082293
 H    1.3523007989   -0.1204575449    3.3061841139