16

 C    0.0556466374   -1.1782365657    0.0206777502
 C    0.0417295706    0.0234763483    0.0283284993
 C    0.0384807296    1.4622717757    0.0472724219
 C   -1.0534590399    2.0781760335   -0.6741556207
 N   -1.9212149358    2.5843771024   -1.2467803367
 C    0.4930407131    2.2748841122    1.2727225602
 C    1.5874000499    1.5133681428    2.0265704288
 C    2.4583776476    1.5324477459    0.7243397898
 C    1.3334945706    2.2933175820    0.0161670954
 H    0.0557475236   -2.2403171902    0.0047614031
 H   -0.1755860954    3.0268166296    1.6726011675
 H    2.0249289949    2.1128222795    2.8266632756
 H    1.3059181225    0.5349443185    2.4216760099
 H    3.3567321514    2.1419887441    0.8354412786
 H    2.7292164893    0.5661225609    0.2936260611
 H    1.4374666007    3.0621841404   -0.7390828241