21

 C   -0.0104258924    1.5575047531    0.0278227553
 C    0.0261977104    0.0274490264   -0.0133260476
 C    0.6831285565   -0.5003307093   -1.2994162767
 C    0.7207462737   -2.0343725387   -1.3399576664
 C    1.4416506732   -2.6166272854   -0.1222971292
 O    2.8119793353   -2.2179665234   -0.2074232895
 C    0.8315869117   -2.0590105121    1.1732491729
 O    0.4569641312   -2.7855102408    2.0652369913
 C    0.7503944005   -0.5445260985    1.2293093709
 H    1.0036489887    1.9730966649    0.0012424677
 H   -0.5597017025    1.9616987655   -0.8289327290
 H   -0.4959705988    1.9199850240    0.9398076927
 H   -1.0107421580   -0.3397438348    0.0108664348
 H    0.1406282356   -0.1219596550   -2.1731612386
 H    1.7066417984   -0.1131654489   -1.3690255682
 H   -0.3005929732   -2.4356026821   -1.3587236261
 H    1.2251825516   -2.3887816661   -2.2450698463
 H    1.3490995074   -3.7099063126   -0.0963929677
 H    3.2898797066   -2.6466596962    0.5104628050
 H    1.7761430746   -0.1527459633    1.2440621025
 H    0.2565673094   -0.2528989769    2.1598321924