16

 C    0.1564834905    1.4915039090   -0.3675366765
 C    0.0824751534    0.0000148702   -0.1177404982
 C    1.3775974499   -0.8121782327    0.0055418372
 C    0.5747700283   -0.5626215156    1.2310036124
 O    0.9811188925    0.3734306438    2.1728988513
 C   -1.0576327114   -0.7705768106   -0.6727493670
 O   -1.1737226052   -1.9748336880   -0.6027689976
 C   -2.1216222478    0.0153910027   -1.3358153537
 N   -2.9600087582    0.6129713890   -1.8622671150
 H    0.9411419344    1.9304268140    0.2498695382
 H    0.3725495973    1.7096737836   -1.4178931791
 H   -0.7835538274    1.9861910706   -0.1065225422
 H    1.3653144602   -1.8103802697   -0.4170726538
 H    2.2918763197   -0.2429804736   -0.1248330064
 H   -0.0160367346   -1.3917009595    1.6168676530
 H    1.8305126887    0.0947084569    2.5307872575