19

 O    0.1699010241   -0.1061457752   -0.0462577889
 C    0.0895954516    1.1020591323   -0.0315596954
 C    1.2891426996    1.9874793808    0.0277659316
 C    2.4642902971    1.5005062657    0.8673459231
 C    2.5681432713    1.4766900038   -0.6178518282
 C   -1.2486032667    1.8289784667   -0.1050537337
 C   -1.6520026560    2.2794928472   -1.5390102175
 C   -2.8002423880    1.2651860241   -1.3549009380
 O   -2.3841155953    0.9673001107   -0.0059312586
 H    1.1056166976    3.0565440852    0.0043732436
 H    3.0173903879    2.2488986456    1.4228624668
 H    2.3134937966    0.5539984733    1.3735340416
 H    2.4878989791    0.5125550177   -1.1068404669
 H    3.1982885178    2.2065767279   -1.1127827222
 H   -1.2693802596    2.6256095693    0.6524313528
 H   -1.9585446519    3.3226983412   -1.6204118587
 H   -0.9321006902    2.0491752615   -2.3258125721
 H   -3.8142713218    1.6796897954   -1.3869042874
 H   -2.7518539034    0.3796743870   -1.9988879421