19

 C    0.1117495918    1.5538116537   -0.0549978957
 C   -0.0100283861    0.0303306088    0.0187515432
 O   -1.3982797072   -0.3425747507    0.0683497299
 C    0.5960980319   -0.7058456130   -1.2027941652
 C    1.4113665334   -1.8630084329   -0.6253806186
 C    1.5127748428   -3.2018057573   -1.2276689020
 O    2.5958960865   -2.2763808438   -1.3251255466
 C    1.5003330763   -1.6133637037    0.8365974765
 C    0.7451406248   -0.5762093648    1.1916835484
 H    1.1585882411    1.8648937227   -0.1257812885
 H   -0.4293656860    1.9341015951   -0.9266206839
 H   -0.3160257244    2.0204447598    0.8407994535
 H   -1.7744568564    0.0294554644    0.8736392983
 H   -0.1997512150   -1.0303390120   -1.8752299225
 H    1.2709540484   -0.0497955066   -1.7593106281
 H    1.6936232447   -4.0729423469   -0.5978892967
 H    0.9822814710   -3.4065142295   -2.1573932098
 H    2.1073119206   -2.2294114446    1.4899790430
 H    0.6230889417   -0.1986534187    2.2024285249