13

 C    0.2029217582   -1.0721640382   -0.2050912565
 C    0.0652633675    0.1144869107   -0.0829956514
 C   -0.0849506234    1.5194708913    0.0659230123
 N   -1.1517833392    2.1842443794   -0.1210830037
 C   -0.8357467290    3.5832502969    0.1546636812
 C    0.6891306709    3.5786137744    0.5168180051
 O    1.0515925659    2.1854133061    0.4596190507
 C    1.5191645586    4.3462146182   -0.4160802787
 N    2.1477885182    4.9819097056   -1.1474563770
 H    0.3171260221   -2.1229936888   -0.3170716958
 H   -1.0501242259    4.2034111073   -0.7196308087
 H   -1.4440716669    3.9519165877    0.9858877420
 H    0.8798936730    3.9357154292    1.5325187105