16

 C   -0.5435662298    1.3718333150    0.1008258056
 C    0.1318713512    0.0110162275   -0.1450945001
 O    1.0576006070    0.1035799395   -1.1974948666
 C    0.7940513877   -0.5002109172    1.1202395793
 C    0.0889851100   -0.8873236712    2.2695320975
 N    0.7023151956   -1.3195681105    3.3622812075
 N    2.0369276453   -1.3804657298    3.3651416493
 C    2.6742026449   -1.0096231025    2.2607829868
 N    2.1181841582   -0.5718329653    1.1244724125
 H    0.1973253938    2.1088977611    0.4241452879
 H   -0.9901034295    1.7170816020   -0.8345347105
 H   -1.3298321323    1.3042166909    0.8593608201
 H   -0.6477739008   -0.7152928345   -0.4252640203
 H    1.9346790352   -0.0224546763   -0.8037398221
 H   -0.9958357450   -0.8581141113    2.3124387998
 H    3.7578847986   -1.0749865075    2.2922841832