23

 C    0.1095858338    1.5268135905    0.3073765128
 C   -0.0447025438    0.0740604894   -0.1617537592
 C   -1.4596770606   -0.4649582748   -0.0627884641
 C   -1.9503063391   -1.4542469869   -1.0947983516
 C   -2.5525645079   -0.0696209072   -1.0431780784
 C   -3.8536774994    0.1745893967   -0.2723433300
 C   -3.5528188561   -0.1005617374    1.2058245671
 C   -3.1902611866   -1.4965046754    1.6448715517
 C   -2.0962145704   -0.5063054472    1.3227843237
 H    1.1442218196    1.8660484747    0.1952990218
 H   -0.5303204487    2.1964583401   -0.2767845675
 H   -0.1638314161    1.6458188444    1.3605068796
 H    0.2867899821   -0.0004960101   -1.2045442336
 H    0.6311676278   -0.5718163263    0.4153284557
 H   -1.2833204849   -1.6624691008   -1.9263994675
 H   -2.5417369809   -2.3124253965   -0.7979203353
 H   -2.3331724562    0.5934363084   -1.8747660749
 H   -4.1469448487    1.2236991157   -0.3889431406
 H   -4.6886526739   -0.4280426928   -0.6502334979
 H   -4.0156198123    0.5507210651    1.9399473423
 H   -3.3400967152   -1.7328605736    2.6937918288
 H   -3.3791611960   -2.3364440607    0.9865427646
 H   -1.4826729865   -0.1578570855    2.1461088326