18

 C   -0.0447346928    1.5708503573    0.2115640658
 C   -0.0276681793    0.0771308677    0.0730049595
 C   -0.8438747588   -0.8764645947    0.8993803140
 C    0.6633517459   -0.9685175400    0.9465248691
 C    1.2427014876   -1.6393757630   -0.3184466572
 N    0.1813344029   -2.0721053226   -1.2023151267
 C    0.5357796951   -0.6265823977   -1.2019979089
 C    1.1438034868   -0.0495179550   -2.3963867975
 O    1.5756362633   -0.7214666020   -3.3142861531
 H    0.9191646776    2.0169487472   -0.0614917534
 H   -0.8126961587    2.0234327923   -0.4277538165
 H   -0.2608944587    1.8578754985    1.2451471455
 H   -1.2832006816   -0.4286072971    1.7857607713
 H   -1.4278114973   -1.6628818894    0.4389833236
 H    1.2404529414   -0.8108769764    1.8480082290
 H    2.2637795558   -1.9796359969   -0.4392117650
 H    0.6117521966   -2.4402064907   -2.0542413329
 H    1.2081526142    1.0578575926   -2.4164009767