19

 C    1.5227052065    1.7190910277    0.0222344379
 C    1.5510369664    0.2017945112   -0.1383036941
 C    0.8166666105   -0.2958390803   -1.3762030910
 O    0.1870380028    0.4523860422   -2.0931198085
 C    0.9272521936   -1.7840339926   -1.6381183520
 C    0.1742628252   -2.4931962789   -2.7937870329
 C    1.1014692605   -1.8365281333   -3.8442493222
 C    1.9523535266   -2.3737549882   -2.6724456583
 O    1.1501086712   -3.6115885582   -2.6844826139
 H    2.0030955325    2.2114330964   -0.8274735490
 H    0.4940767335    2.0846370428    0.0683506780
 H    2.0417872647    2.0217317769    0.9357320332
 H    2.5801747441   -0.1825345712   -0.1772452714
 H    1.1003004705   -0.2970632639    0.7317063933
 H    0.9359241234   -2.3631375670   -0.7111292723
 H   -0.8825765651   -2.7494118206   -2.8575433684
 H    1.2091134749   -2.4041787707   -4.7687484771
 H    1.0210292482   -0.7610292330   -3.9920411461
 H    3.0336728001   -2.4727353993   -2.5705144252