21

 C    0.6222584630    0.2140154841    1.3848555207
 C   -0.0009630547    0.0753285063    0.0101653807
 C    0.5090337083    0.9143806916   -1.1021706410
 N    0.7912907466   -0.5352891345   -1.0778329286
 C   -1.4308161536   -0.3514046462    0.0195227903
 C   -1.9321496432   -1.8000311625    0.1851712096
 C   -3.1387273306   -1.4548218163   -0.7500741208
 C   -2.5949764024   -0.0251406413   -0.8730437372
 N   -2.4529900170    0.6059409161    0.4378031386
 H    1.6643152758    0.5437407883    1.3157295751
 H    0.0704697709    0.9470469498    1.9817845440
 H    0.6044379626   -0.7407003333    1.9236876267
 H   -0.1602532958    1.2352198424   -1.8944221019
 H    1.3175118329    1.6077208466   -0.8841797705
 H    1.7449122883   -0.6901673827   -0.7581502404
 H   -1.2564734772   -2.5275193522   -0.2685002262
 H   -2.1620322004   -2.1131360084    1.2095087768
 H   -3.1054189549   -2.0123125437   -1.6887174051
 H   -4.1450218094   -1.5410924185   -0.3259047317
 H   -2.6568897948    0.6217403477   -1.7412358558
 H   -3.0983579043    0.2217578468    1.1269068066