16

 O    0.0128830339    0.0301846292   -0.2380967615
 C   -0.0360779148    1.2099757748   -0.0633785903
 C   -1.1514034258    2.2343316517   -0.0549792190
 N   -0.9165661965    3.0454223248    1.1925962342
 C   -0.1266520021    3.3334824622   -0.0087590213
 C    1.0484227711    2.3396757562    0.0095202837
 C    2.0279630812    2.3977206715    1.1901314254
 C    3.0033679722    1.3152620410    1.1726015680
 C    3.8113328244    0.4266696216    1.1395467229
 H   -2.1324386217    2.1949163015   -0.5105892396
 H   -1.6853934572    3.7145355745    1.2364736568
 H   -0.1657226488    4.2928882143   -0.5078309789
 H    1.5892065910    2.3357609608   -0.9433238060
 H    2.5534055631    3.3619937746    1.1656582527
 H    1.4544163977    2.3801684138    2.1226358190
 H    4.5159744224   -0.3671601124    1.1193714539