19

 C    0.1432584539    1.3408424178   -0.5745934478
 C    0.1078830804   -0.0896119140   -0.0720927320
 C    1.4303271874   -0.8112771900    0.1558232942
 C    0.6212314808   -0.3776034634    1.3333008063
 C   -1.0076058918   -0.9995293975   -0.5035170654
 O   -1.0919005218   -2.1572854815   -0.1347062853
 N   -1.9464185440   -0.4415400043   -1.3548503703
 C   -3.0381871429   -1.1359396621   -1.8503575957
 N   -3.8589946225   -0.5573271048   -2.6288559603
 H    1.0140519733    1.8618570059   -0.1676575102
 H    0.2220392780    1.3917921934   -1.6671460758
 H   -0.7425404457    1.9080519804   -0.2646847906
 H    1.4445057736   -1.8693006692   -0.0749462329
 H    2.3319686576   -0.2621299074   -0.0922766153
 H    0.9540924327    0.4762582870    1.9131008693
 H    0.0966706434   -1.1470564447    1.8861584083
 H   -1.8654511699    0.5186207420   -1.6535290602
 H   -3.0680736140   -2.1658339157   -1.4910501803
 H   -4.5993429285   -1.2014062920   -2.9009870958