19

 O    0.0522705483    0.0681357209    0.0273904828
 C   -0.0091373875    1.2710359266    0.0138535290
 C   -1.2260948492    2.1913454258    0.0059902977
 C   -0.7690887191    3.2620346206    1.0578983310
 C    0.3208193043    3.5695245744   -0.0131187854
 C   -0.7737365577    3.2377204876   -1.0720703129
 C    1.1249641001    2.2729189150   -0.0000790933
 C    2.4028818722    2.0066317382    0.7520662080
 C    2.3995823158    1.9894654016   -0.7515489253
 H   -2.2072878738    1.7220593996    0.0134878826
 H   -1.5038824275    4.0638715302    1.1602860683
 H   -0.4428201003    2.9143630050    2.0415732009
 H    0.8748226595    4.5079474654   -0.0250410827
 H   -0.4517463111    2.8676681327   -2.0489667762
 H   -1.5090095045    4.0370482020   -1.1895288765
 H    2.8748589363    2.8440369017    1.2556181806
 H    2.4765595473    1.0554621884    1.2689968033
 H    2.4710402943    1.0267388942   -1.2469482827
 H    2.8693042027    2.8151326702   -1.2761532593