21

 O   -0.2068435385    1.4737977445   -0.1006218193
 C   -0.0267146174    0.0672057822   -0.1628597425
 C   -1.3641092841   -0.5837995606    0.1978807357
 C   -1.3300571732   -2.0824110873    0.1574136080
 C   -1.5456393317   -2.9153523321    1.1830153489
 C   -1.5438057780   -4.3467248470    0.7692813089
 C   -2.6381990471   -4.7312048574   -0.2087292129
 C   -1.2855430171   -4.3199661842   -0.7294451936
 C   -1.0712002011   -2.8612415903   -1.1276718647
 H    0.6307922238    1.8940149863   -0.3156024094
 H    0.2872375724   -0.2481847366   -1.1703714790
 H    0.7474956916   -0.2721631624    0.5433003980
 H   -1.6558893723   -0.2391038453    1.1954259802
 H   -2.1170493530   -0.1975200384   -0.5029425942
 H   -1.7534425589   -2.5980839294    2.1997052573
 H   -1.1292509275   -5.1076747787    1.4215561422
 H   -2.8933143045   -5.7830759318   -0.2902903073
 H   -3.4773154196   -4.0511802631   -0.3198119947
 H   -0.6752164883   -5.0817339695   -1.1998179424
 H   -1.7410238649   -2.5408309774   -1.9373817151
 H   -0.0493323206   -2.6976871614   -1.4966022342