19

 C   -0.0779668747    1.5096333704   -0.0010620703
 C    0.0218885632    0.0174662918   -0.0356534482
 C   -0.1071745906   -0.7774459799   -1.1013617641
 C    0.0505979474   -2.2377945430   -0.7704533589
 O    1.1618270224   -2.8725637580   -1.4121399144
 C    2.2607796580   -2.6204191510   -0.5760277808
 O    1.7874731416   -2.6868349266    0.7538679049
 C    0.4329088343   -2.2390853830    0.7440292040
 C    0.2669816615   -0.7815174301    1.2277889250
 H    0.8442228358    1.9537721404    0.3941506611
 H   -0.2630809470    1.9283634588   -0.9935750608
 H   -0.8874117641    1.8346458071    0.6649110783
 H   -0.2985499085   -0.4392387993   -2.1138923411
 H   -0.8299175140   -2.8380985822   -1.0179787056
 H    3.0123600468   -3.4002557283   -0.7296632559
 H    2.6956791165   -1.6266948933   -0.7816887353
 H   -0.1461785619   -2.9455872303    1.3436973760
 H    1.1586898302   -0.4515778137    1.7733469091
 H   -0.5774234768   -0.6841246197    1.9234640271