15

 N    0.0466263065    1.3706658146   -0.1407036438
 C   -0.0009462486   -0.0180048580   -0.0666776438
 C   -1.1932391592   -0.7350619420    0.0098315231
 N   -1.2126277632   -2.0735586354    0.0189472078
 C   -0.0618823148   -2.7219937725   -0.0634289110
 N   -0.0514511655   -4.1099154518   -0.1340399501
 C    1.1413967141   -1.9834397924   -0.1278681084
 O    2.3075636193   -2.6722990667   -0.1743574805
 N    1.1751003829   -0.6704943333   -0.1227698057
 H    0.9431999710    1.7483364980    0.1312184958
 H   -0.7239716185    1.8486598840    0.3026007714
 H   -2.1514061924   -0.2265810196    0.0699022197
 H   -0.8989598800   -4.5257748334    0.2258399007
 H    0.7903918882   -4.5410793383    0.2189821756
 H    3.0138066701   -2.0123873533   -0.2011982107