20

 C   -0.1300938443    1.5583114571   -0.0865763577
 C    0.0023310764    0.0377920608   -0.0528585588
 C    1.2039020597   -0.5175621729   -0.8769798472
 C    2.0118022781   -0.6858525958    0.4383699139
 C    0.6782789545   -0.5653958087    1.2247188480
 C    0.6543739290    0.2398310630    2.5240364917
 O   -0.6565194693    0.4479352064    3.0222840251
 C    1.5156103847   -0.4048189048    3.5403123740
 N    2.1690456663   -0.9434774586    4.3269161648
 H    0.8300572534    2.0582894881    0.0862941598
 H   -0.4884763714    1.8827479946   -1.0689199835
 H   -0.8383601725    1.9114188662    0.6688776522
 H   -0.9662279982   -0.4107032148   -0.2902059796
 H    0.9784889912   -1.4783339409   -1.3469498252
 H    1.6228595014    0.1484252708   -1.6356062037
 H    2.5867901833   -1.6034616871    0.5726388035
 H    2.6755610922    0.1632593503    0.6282085865
 H    0.2698841026   -1.5614685108    1.4329959020
 H    1.0528036859    1.2435954627    2.3438129005
 H   -1.0503207630   -0.4140766654    3.2006548839