17

 C   -0.1029947724    1.6141813254    0.0616434123
 C    0.0230886291    0.1044856945    0.0690860705
 N    0.9425002102   -0.4714881438   -0.9388463237
 C    1.4424951109   -1.4854952976    0.0038662313
 C    2.9438701382   -1.7113822699   -0.0474210611
 O    3.4614387957   -2.7776469643    0.1556784361
 C    0.8717101806   -0.6121975390    1.1813146265
 C    1.8398041373    0.2333715096    1.8620117765
 N    2.5993506812    0.9117234891    2.4095964500
 H    0.8794084921    2.0880790779    0.1224982161
 H   -0.5879510664    1.9427992399   -0.8634746456
 H   -0.7139419685    1.9577342085    0.9028691987
 H   -0.9745088777   -0.3589733254    0.0536532793
 H    0.5172449257   -0.8264898560   -1.7882313630
 H    0.9401981315   -2.4610181838   -0.0203738047
 H    3.5255197965   -0.7983206493   -0.2950992229
 H    0.3012856362   -1.1719449658    1.9231945437