15

 N   -0.0880859731    1.1005846470   -0.6328396151
 C   -0.0282323511   -0.0780850327   -0.1973186428
 N    0.9792408931   -0.9549912174    0.2377195618
 C    0.0746806425   -2.0400971215    0.6047526445
 C   -0.6220142589   -1.9662688635    1.9991535176
 N   -1.6005723400   -0.9758612846    1.4845497189
 C   -1.1094956074   -1.1222413076    0.0950968393
 C    0.4252852850   -3.3501045793    0.0945896039
 N    0.6886620775   -4.4084066172   -0.2897358287
 H    0.8229953004    1.5617741539   -0.6417786658
 H    1.8562283751   -0.7261891924    0.6858061380
 H   -1.0592862298   -2.9304360575    2.2793208796
 H    0.0039343749   -1.6022521475    2.8202755062
 H   -2.5644014750   -1.2606922770    1.6013532347
 H   -1.8208785532   -1.3976049027   -0.6814206122