18

 C    0.4120633740    0.5576041427    0.7326614947
 C   -0.2183834948    0.0910041825   -0.5669045998
 O    0.2341074622    0.3876289475   -1.6485490794
 C   -1.4525452728   -0.8064872395   -0.4375099005
 C   -1.0419696105   -2.2098226070   -0.0688764606
 C   -0.2692074830   -3.0567080880   -0.8377584138
 N   -0.1060508563   -4.2265498547   -0.1427613119
 C   -0.7549461484   -4.1495868915    1.0620342943
 C   -1.3429946085   -2.9085064476    1.1376383848
 H    1.3750427670    1.0298443368    0.5348527063
 H   -0.2517092346    1.2829427303    1.2190958983
 H    0.5333857597   -0.2812922093    1.4247578438
 H   -2.1226574408   -0.4108051300    0.3334622281
 H   -1.9771124692   -0.7800840177   -1.3969043176
 H    0.1718361439   -2.9138709405   -1.8112293482
 H    0.4116026509   -5.0228183806   -0.4706632930
 H   -0.7492821636   -4.9777039311    1.7520610188
 H   -1.9363068651   -2.5363553721    1.9595980758