20

 C    0.3519560043    1.6115180606   -0.0357556914
 C    1.3277647346    0.4664045259    0.0307803728
 C   -0.1653842376    0.1970509147   -0.0881129692
 C    0.0716965021   -0.5364487013   -1.4379914593
 C    1.5648742542   -0.2584905545   -1.3221429808
 C    0.7874865961    0.3025331224   -2.4801671276
 N    1.0989301765   -0.2141614384   -3.7913419676
 C    1.0004949775   -1.6406737820   -4.0789087760
 C   -0.0020058337   -0.6858435145   -4.6274313460
 H    0.1867481712    2.0949851625    0.9231061841
 H    0.2983589926    2.3016153124   -0.8696751887
 H    1.9723234673    0.3152227663    0.8874243037
 H   -0.8412519883   -0.1874324079    0.6655674384
 H   -0.4213034390   -1.4708807887   -1.6723616878
 H    2.3870633804   -0.9424520655   -1.4912027260
 H    0.5868903631    1.3658350867   -2.5514420515
 H    1.7891755591   -2.0348147389   -4.7140384916
 H    0.6698013611   -2.3222229423   -3.2997692907
 H   -0.9971222757   -0.7120773114   -4.1877583013
 H    0.0336934742   -0.3824768860   -5.6699750035