17

 O   -0.0715071423    1.4324139989    0.0489057994
 C   -0.0104904183    0.0212129394   -0.0818815029
 C   -1.4283601256   -0.4828540428   -0.0483914824
 C   -2.4933188727   -0.3591452019    1.0644973314
 N   -3.2548808028   -1.1605125562   -0.0126417705
 C   -2.6055107554   -0.1648702167   -0.9999872950
 C   -1.9287315993   -1.9530534527   -0.1333121752
 C   -1.7319829610   -2.7222226496   -1.3541630517
 N   -1.5391040191   -3.3428963064   -2.3103534745
 H    0.8217733223    1.7823799431   -0.0169927068
 H    0.4615108780   -0.2836087635   -1.0292730093
 H    0.5642944511   -0.4404816641    0.7377290280
 H   -2.3408249653   -0.9113792583    1.9960046869
 H   -2.9209731873    0.6275832650    1.2446003513
 H   -3.0384633539    0.8347386405   -0.9470047261
 H   -2.5604425545   -0.5319202160   -2.0271968445
 H   -1.7437354240   -2.5904193987    0.7359215420