23

 C    0.2108859539    1.5540910071   -0.3448909911
 O   -0.3258180184    0.2812296795   -0.6241328011
 C    0.6156619348   -0.6187473605   -1.1382239861
 C    1.6371074771   -1.2908534328   -0.1780418135
 C    1.3789428486   -2.6296764364   -0.9223704805
 C    0.0632958772   -2.0153656192   -1.5075180851
 C   -1.1913148249   -2.3974279801   -0.7255205889
 O   -0.1127480248   -2.1191846419   -2.9081281189
 C   -0.3400099789   -3.4204771223   -3.4019786292
 H    0.9974625237    1.5115873026    0.4237287262
 H    0.6368668832    2.0208313980   -1.2469572394
 H   -0.6062816928    2.1788285798    0.0238854384
 H    1.1227179426   -0.1960532500   -2.0182632234
 H    2.6587935045   -0.9069673884   -0.1723107138
 H    1.2567658667   -1.3076018502    0.8468504082
 H    2.1102832102   -2.8068097122   -1.7148188304
 H    1.2840422947   -3.5303459180   -0.3121939438
 H   -1.0612319492   -2.1923910608    0.3399913022
 H   -2.0461157199   -1.8148334739   -1.0776655789
 H   -1.4144916362   -3.4628042050   -0.8365317507
 H    0.4336893306   -4.1285173014   -3.0688408175
 H   -1.3216583380   -3.8198424372   -3.1109744297
 H   -0.3047162547   -3.3556595968   -4.4925562332