15

 N   -0.1977174176    1.3022872837   -0.1706807404
 C   -0.0318853030    0.0720728153    0.1282125578
 N    1.1346682444   -0.5381118183    0.5354747478
 C    1.3331783387   -1.9587596647    0.7418772119
 C    0.0825212856   -2.6233757983    1.2719373694
 O   -0.6516049123   -1.9031814980    2.2407656964
 C   -1.2365605786   -2.0514764189    0.9354934915
 C   -1.2594422360   -0.8333107515    0.0610880741
 O   -2.1866790995   -0.6113171988   -0.6750808669
 H    0.6766206378    1.8284893938   -0.0934523827
 H    1.9531535860    0.0482249342    0.5786680776
 H    1.6345780354   -2.4851249032   -0.1786509112
 H    2.1459772959   -2.0909459875    1.4652185995
 H    0.1556020690   -3.6981105597    1.4351736860
 H   -2.1235565958   -2.6774242781    0.8795852092