23

 C   -0.8650050314    1.1966999035   -0.0805403252
 C   -0.0372006197   -0.0938443923   -0.0921650584
 C    1.0184914298   -0.1502073760   -1.1925587201
 C    2.3043257101    0.6213169547   -1.0142351023
 C    2.2463763547   -0.8448465112   -0.6584151451
 C    1.9901437122   -1.2265380254    0.7934032251
 C    0.7108973962   -0.4578795312    1.2352411686
 C    1.0213631323    0.7083412094    2.1766679091
 O    1.5756203999    0.1456810758    3.3613612605
 H   -0.2392110765    2.0812118254    0.0764239420
 H   -1.3766197460    1.3262541680   -1.0401426500
 H   -1.6324391573    1.1805840748    0.7006434869
 H   -0.7316397621   -0.9206652796   -0.2937382419
 H    0.6702143176   -0.3216588460   -2.2063145637
 H    2.8433760899    0.8869336236   -1.9177548151
 H    2.3887967316    1.3631166593   -0.2279314353
 H    2.8098909475   -1.5366506417   -1.2755142554
 H    1.8167839214   -2.3069009412    0.8509377628
 H    2.8292861500   -1.0088754167    1.4613261264
 H    0.0761863384   -1.1239073691    1.8295091572
 H    1.7256995728    1.4214679617    1.7234275709
 H    0.0988633608    1.2613106417    2.4065270682
 H    1.8118490677    0.8663834327    3.9523100850