17

 C   -0.0412176904    1.5262657290   -0.0494182003
 C    0.0718692706    0.0182507333   -0.0121013910
 O    1.1247951224   -0.5645537812   -0.0132547305
 C   -1.2640273322   -0.7697438359    0.0020856349
 C   -1.8592282593   -0.9273107439   -1.4486986944
 N   -1.2828880946   -2.2818403464   -1.5082879983
 C   -1.0755965761   -2.3151634105   -0.0429743936
 C   -2.1783082202   -0.2464441995    0.9999386823
 N   -2.9026701376    0.1749664691    1.7975510338
 H    0.9401387573    1.9613210503   -0.2388322700
 H   -0.7537657482    1.8517549293   -0.8141982903
 H   -0.4236807601    1.8871059477    0.9115286135
 H   -2.9549292363   -0.8724662628   -1.4371833550
 H   -1.4753950466   -0.2328095866   -2.2042199472
 H   -1.9028516448   -2.9945870799   -1.8736818368
 H   -0.0836124393   -2.6537238709    0.2626624537
 H   -1.8514826045   -2.8380534110    0.5281534793