18

 C   -0.1604214487    1.3013477778   -0.3664598870
 N   -0.0715414099   -0.0197296568    0.2204374256
 C   -1.0842192447   -1.0732556474    0.1816354325
 C   -0.9506218107   -1.9139886842   -1.0615203005
 O   -0.4945223709   -1.4001781540   -2.2750342107
 C    0.0314089102   -2.1279687854    0.0706772871
 C    0.2732594554   -3.4316422580    0.7723563491
 C    0.9801393351   -0.9223584013    0.0548558899
 O    2.1633318396   -0.7586462423   -0.0553792500
 H    0.8470513279    1.7239588862   -0.3844982327
 H   -0.5456574544    1.2700396213   -1.3938878519
 H   -0.8011869173    1.9519879503    0.2366841775
 H   -1.9404828755   -1.0539535546    0.8456830552
 H   -1.6852699220   -2.7188923084   -1.1497281964
 H   -1.2441813299   -1.0119568441   -2.7398708113
 H   -0.6128522500   -4.0730706736    0.7434052739
 H    1.0958090331   -3.9733409449    0.2937729065
 H    0.5444917028   -3.2730997507    1.8208747035