18

 C   -0.1000467241    1.4868451255   -0.0298258782
 C   -0.0472536316   -0.0041353281    0.0249157160
 O   -0.1349909223   -0.7036907172   -1.2179165200
 C   -0.5829835319   -1.8918314543   -0.5096849846
 C    0.6301757268   -2.8081071816   -0.2555250967
 N    1.9262332866   -2.2230750748   -0.6772466174
 C    1.4683828822   -2.0752276991    0.7218858370
 C    0.6971144033   -0.8233649969    1.0897423908
 C   -0.7824734387   -1.0543269953    0.7952196797
 H    0.7770299402    1.8796133804   -0.5552612588
 H   -0.9966094585    1.8197562809   -0.5621874907
 H   -0.1138966474    1.9103278789    0.9784172856
 H   -1.4403261021   -2.3589263950   -0.9953005250
 H    0.5027515241   -3.8856481322   -0.2415522410
 H    2.6169001778   -2.9723490577   -0.7102726223
 H    2.0182717143   -2.5803649158    1.5108155580
 H    0.9712330137   -0.2766207406    1.9852560117
 H   -1.6186644825   -1.0274653972    1.4815875759