21

 C    0.2222857560    1.3797599955    0.2646023437
 C   -0.3565208779    0.1399397640   -0.4160923213
 N    0.5824631557   -0.4604148150   -1.3494377082
 C    0.7715356768   -1.8270191090   -1.3953604195
 O    0.2988627334   -2.5975317850   -0.5743652471
 N    1.5410016130   -2.2491058156   -2.4601940602
 C    2.0278084936   -3.6145917340   -2.5121510126
 C    2.3408585699   -3.9978742512   -3.9477714076
 O    3.3322608914   -3.0884610498   -4.4188137602
 H    1.1294336597    1.1284543272    0.8217149188
 H    0.4785355733    2.1559126827   -0.4658432469
 H   -0.5057644083    1.8086813272    0.9604803310
 H   -0.5880269147   -0.6371937854    0.3148203016
 H   -1.2984521101    0.3968863658   -0.9230209804
 H    0.8144003427    0.0724981316   -2.1728377580
 H    2.1254606859   -1.5794053163   -2.9368535530
 H    2.9327008799   -3.7484980518   -1.9005657660
 H    1.2538398782   -4.2640130541   -2.0989482041
 H    2.7042428203   -5.0359588596   -3.9788803553
 H    1.4259039423   -3.9326031188   -4.5546168199
 H    3.4673413689   -3.2433974383   -5.3577662949