21

 C   -0.1054592627    1.5870540842    0.0640102685
 C    1.4324421610    1.4285857091   -0.0080574313
 O    1.7336578824    0.8008499276    1.2496937013
 C    0.7737399811   -0.2933460189    1.2657232522
 C    1.5188949741   -1.6298544825    1.1876980269
 C    2.6487066213   -1.5393444969    0.1496610244
 C    2.1720431004   -0.9121237810   -1.1742306369
 C    1.1876044368    0.2405930869   -0.9912084824
 C   -0.0182162284    0.0363903320   -0.0139162142
 H   -0.5033516681    2.0416982402    0.9744193739
 H   -0.5516060830    2.0306906868   -0.8278824962
 H    2.1313646285    2.2445208198   -0.1896260342
 H    0.1648597009   -0.2186477057    2.1737486257
 H    1.9331191872   -1.8911753712    2.1673382894
 H    0.7991029075   -2.4179507368    0.9277494876
 H    3.4462485661   -0.9238080936    0.5730654066
 H    3.0736976134   -2.5311017945   -0.0380776853
 H    3.0361421500   -0.5828882872   -1.7642054265
 H    1.6661221525   -1.6759362952   -1.7813854007
 H    0.8423292309    0.6185500042   -1.9574982075
 H   -0.8700973418   -0.6016837472   -0.2499879315