19

 C    0.1080386410    1.4732850306   -0.1864483580
 C   -0.0330089554   -0.0404040864    0.0322560193
 C    0.7167310556   -0.4866609484    1.2936416797
 C   -1.5125191881   -0.4284804097    0.0916667004
 C   -2.3133875480   -0.2553624544   -1.2295148034
 N   -2.8371100637   -1.5945386028   -1.5527498681
 C   -2.4054415350   -2.3557796012   -0.6377885619
 O   -1.6422890103   -1.8581410147    0.3613951327
 H    1.1633064896    1.7549447139   -0.2506188603
 H   -0.3807151838    1.8082097921   -1.1067037767
 H   -0.3322131801    2.0307584546    0.6490025074
 H    0.4004220603   -0.5615778049   -0.8331220358
 H    0.3210330632    0.0191421075    2.1826273243
 H    0.6211055632   -1.5634721083    1.4484961004
 H    1.7807175704   -0.2407081533    1.2181491719
 H   -1.9922702445    0.0878345021    0.9321453193
 H   -3.1400417500    0.4547796995   -1.1320549823
 H   -1.6792347741    0.0949305244   -2.0522606522
 H   -2.5914251103   -3.4221881605   -0.5686398668