15

 O   -0.1144658718    1.4074770464   -0.0200587832
 C    0.0306434622    0.0441566641   -0.0014840757
 C   -1.0059695215   -1.0066737110    0.0107272880
 N   -0.4919181331   -1.6678337806   -1.1560411317
 C    0.8114359961   -0.8831107424   -1.0240602822
 C    1.7594247131   -1.6845585715   -0.1801735576
 C    1.2946401552   -1.7157572727    1.0847154846
 C    0.1016692994   -0.8637540913    1.1989899707
 H    0.6542913966    1.7996491661    0.4105864258
 H   -2.0557543982   -1.0001575345    0.2763157435
 H   -0.3498565336   -2.6740247812   -1.0471015928
 H    1.1600911937   -0.4760024240   -1.9725379688
 H    2.5920965723   -2.2520648943   -0.5764646057
 H    1.6823161275   -2.3238245352    1.8933097608
 H   -0.3147708381   -0.5323117779    2.1426205341