22

 C   -0.5357009181    1.6585519634    0.3083451142
 C   -0.1914275382    0.1973498918   -0.0081892089
 C    0.5000986607   -0.4824511212    1.1600504107
 C   -0.1800610884   -1.1820089503    2.3046918333
 C   -1.3542203730   -2.0500415727    1.8258034467
 C   -0.3564014555   -2.9028981861    0.9681935950
 C   -0.6336898930   -3.2112891043   -0.4998251177
 C    0.7795651747   -1.9493322604    1.3765191968
 H    0.3655998325    2.2345185783    0.5468202713
 H   -1.0273390512    2.1455504649   -0.5396527171
 H   -1.2067526849    1.7252641280    1.1713006010
 H   -1.1080660353   -0.3316178309   -0.2830704915
 H    0.4604800683    0.1567484789   -0.8906147651
 H    1.3456846003    0.1074656634    1.5174098785
 H   -0.0236235812   -0.8815859491    3.3341858925
 H   -1.8220957155   -2.6284491422    2.6252479125
 H   -2.1462656017   -1.5264964567    1.2798639933
 H   -0.1979389148   -3.8521924611    1.4918294121
 H   -0.8112158819   -2.3099149971   -1.0910818899
 H    0.2154623944   -3.7382058597   -0.9501151411
 H   -1.5133075687   -3.8573188255   -0.6024772753
 H    1.7913916406   -2.2811502216    1.5856878488