20

 C   -0.1198252676    1.5141440735    0.2551851879
 C    0.1036516315    0.0121812835    0.0355311018
 C    0.7395112876   -0.3083699559   -1.2805822929
 O    1.4068452847   -1.5600943325   -1.4495997729
 C    2.1278419813   -0.3629747715   -1.7542776151
 C    1.6888081563    0.1512764055   -3.1710065714
 C    0.2790303127    0.1997945017   -2.7085971277
 N    0.6946559600   -0.7834514181   -3.7222958108
 C    0.2630221537   -0.4266612640   -5.0721296564
 H    0.8261392513    2.0638420144    0.2197366106
 H   -0.7818290552    1.9388286888   -0.5062540958
 H   -0.5801727029    1.6968500077    1.2302666182
 H    0.7431934366   -0.3984891471    0.8243930969
 H   -0.8551957333   -0.5193185486    0.1031995109
 H    3.0762982705   -0.1977077519   -1.2560731970
 H    2.2345890952    0.8412618422   -3.8014909578
 H   -0.4887096796    0.9346184608   -2.9154601945
 H    0.2364295569    0.6588251589   -5.2705747123
 H    0.9428461602   -0.8898935029   -5.7938933556
 H   -0.7405051800   -0.8299052146   -5.2397154561