18

 C   -0.1412591939    1.5768316689    0.1053623082
 C    0.0818159549    0.0778127622   -0.0085381506
 C    0.7678123041   -0.5597890578   -1.2568584082
 C    2.1448868401    0.0474733134   -1.6144927251
 N    2.7732691700   -0.6536523508   -0.4279603947
 C    1.5333238532   -1.5045552648   -0.2781646673
 C    1.1000919059   -0.6564028539    0.9543668966
 C    2.4376775338    0.0557288374    0.7873908331
 O    3.0135729478    0.9520952097    1.3296939975
 H    0.7969603759    2.1371262060    0.0621145520
 H   -0.7901519040    1.9318768676   -0.7029292569
 H   -0.6241023486    1.8261409979    1.0560561574
 H   -0.8698138048   -0.4502786039    0.1159633509
 H    0.1142066245   -0.8774255672   -2.0693193010
 H    2.5562387901   -0.3541832633   -2.5445654385
 H    2.2698882821    1.1340343977   -1.6063743816
 H    1.6264562717   -2.5862958887   -0.3280112753
 H    0.7397150971   -0.9922158402    1.9256417536