20

 C   -0.0609386331    1.4485896418    0.0238903895
 N   -0.0103599411    0.0054501375    0.0209523691
 C   -0.0270756265   -0.7872472263   -1.0964998422
 C    0.0351698895   -2.1106718463   -0.7140976386
 C    0.0424695549   -3.3221129044   -1.5951186712
 C    0.0919855969   -2.0966038574    0.7091551245
 O    0.1631738732   -3.1786584062    1.5486771809
 C    0.0636703476   -0.7928269291    1.1525645057
 C    0.1004803742   -0.2566042573    2.5426199223
 H    0.8324046224    1.8815889105    0.4887189712
 H   -0.1168391053    1.8023280470   -1.0072862702
 H   -0.9402843459    1.8190906019    0.5633680895
 H   -0.0821903818   -0.3497620200   -2.0814786241
 H    0.9543656771   -3.9225553201   -1.4726055800
 H   -0.8093058870   -3.9873165694   -1.3976491482
 H   -0.0126863223   -3.0379503977   -2.6497367427
 H    0.1776420455   -3.9761006089    1.0121800493
 H    0.9681386914    0.3910049188    2.7265989528
 H   -0.7956718106    0.3240229556    2.7993529590
 H    0.1610538712   -1.0942756399    3.2410945935