23

 C   -0.1331099634    1.5396080143    0.0201988887
 C   -0.0338693883    0.0371750259    0.0162232851
 C   -0.0736156354   -0.6661520269   -1.1170672586
 C    0.0245861967   -2.1719073048   -1.2288524427
 O   -0.1175633232   -2.5921312308   -2.5841974390
 C    1.3650558407   -2.7317941757   -0.7358892824
 C    1.5013443000   -2.7654761591    0.7924579559
 C    1.4706390049   -1.4095496383    1.5145578263
 C    0.1495774743   -0.6251144870    1.3703992445
 H    0.7590793413    1.9925737286    0.4727730702
 H   -0.2462718739    1.9452046142   -0.9887218688
 H   -0.9872831455    1.8758761333    0.6227933109
 H   -0.1601105737   -0.1449241775   -2.0693740334
 H   -0.7715488300   -2.6347265429   -0.6158230921
 H   -0.9461410990   -2.2323243213   -2.9166694875
 H    1.4478924915   -3.7535242475   -1.1231526774
 H    2.1799456427   -2.1517113450   -1.1846755990
 H    0.7011976936   -3.3979976863    1.2033454704
 H    2.4410700010   -3.2713349833    1.0439300427
 H    1.6510300997   -1.5910098600    2.5812044361
 H    2.2992629982   -0.7814774639    1.1630465649
 H    0.1069540790    0.1421388064    2.1508866323
 H   -0.6900431013   -1.3066641124    1.5723422429