20

 C   -0.5803428339    1.4578650115    0.0894777589
 C   -0.1108231195    0.0178759469    0.0313787477
 C    1.0070003625   -0.3896281670   -0.9800693136
 C    1.7401233258   -1.0892935846    0.1967525223
 C    2.9086236243   -0.3873538269    0.9436012804
 C    3.9473399487    0.4572984995    0.2210273539
 C    1.7732536141    0.3708737652    1.6760723446
 O    1.7104761118    1.3630314932    2.3464295888
 N    0.7579341524   -0.4800016111    1.1668084394
 H    0.2568809829    2.1572151683    0.1542245672
 H   -1.1567042164    1.6886389329   -0.8128632302
 H   -1.2232992120    1.6244069809    0.9584886156
 H   -0.9745226252   -0.6508313050   -0.0425101180
 H    0.7015576008   -1.0375655608   -1.8040246702
 H    1.5437650079    0.4705260898   -1.3907620938
 H    1.7653992398   -2.1802521024    0.1565651528
 H    3.4053474899   -1.0973221977    1.6146773206
 H    3.4874356710    1.1660799597   -0.4738445405
 H    4.5223334471    1.0388515612    0.9474869431
 H    4.6440967582   -0.1701487136   -0.3433604489