12

 N    0.0374079116    1.0795991463    0.6893324405
 C   -0.0346755936    0.0109361892    0.0362240531
 O    1.0319998438   -0.4656904356   -0.7151542045
 C    1.1538592566   -1.8016041558   -1.0009058712
 O    2.0933529958   -2.2022756724   -1.6139207811
 C    0.0580785649   -2.6759803369   -0.4272316665
 O   -1.2283451966   -2.0601339094   -0.4232385380
 C   -1.3387761253   -0.7654959464   -0.0445185313
 O   -2.4033363476   -0.2714865299    0.1628273330
 H    0.9722853228    1.4884839491    0.6211363767
 H   -0.0234657306   -3.5761244425   -1.0349179511
 H    0.3421187381   -2.9698461255    0.5924278005