16

 N   -0.1315860847    1.2557529385   -0.2516800808
 C   -0.0532847621   -0.1167786882   -0.0538782851
 O    0.9562858420   -0.7639226768   -0.2540878107
 N   -1.2309144938   -0.6860943084    0.3950161055
 C   -2.6262110513   -0.2960626934    0.0659500443
 C   -2.9677335757   -1.7824543889   -0.0956855823
 C   -2.0512361599   -2.4178314052   -1.1147718576
 C   -1.5202377464   -2.1065600627    0.2525203694
 H    0.7757774693    1.6900316097   -0.3288252618
 H   -0.7923492210    1.7727331749    0.3087015944
 H   -3.1308627815    0.1856359455    0.9106379230
 H   -2.7261135186    0.3318435266   -0.8270301717
 H   -3.8734318440   -2.2519083453    0.2607544245
 H   -2.2435997801   -3.4688534308   -1.3061857980
 H   -1.6996768106   -1.8557189220   -1.9756579758
 H   -1.0940111516   -2.8357216235    0.9286645828