19

 O    0.2187164735    1.2407434459   -0.5233152052
 C   -0.0401584651    0.0165525159    0.1338793529
 C   -1.5218273244   -0.3225997706    0.1307651093
 O   -1.9200690295   -0.4230894712   -1.2319112853
 C   -3.2588692153   -0.7662291034   -1.4082340103
 C   -4.3976981590    0.3082586363   -1.3876589180
 C   -3.8378748009    0.9136833160   -2.6953751771
 C   -3.8536707293   -0.6287228677   -2.8267571730
 O   -5.1913189100   -0.6462366313   -2.1919671953
 H   -0.1811736670    1.1633245603   -1.3967862255
 H    0.5173628807   -0.8150074615   -0.3255047489
 H    0.3080202188    0.1255013683    1.1661278793
 H   -1.7047684792   -1.2724408962    0.6571918962
 H   -2.0927152325    0.4705373786    0.6357364528
 H   -3.5297730404   -1.6962304104   -0.8942126741
 H   -4.8984142365    0.7933229162   -0.5499110751
 H   -4.5710289458    1.4349561189   -3.3115071240
 H   -2.8686173749    1.4117923233   -2.6536880678
 H   -3.7013312933   -1.2590700574   -3.7026265809