20

 C    0.0248377666    1.5677404428    0.0889693755
 C    0.0046914028    0.0367950172    0.0526876224
 C    0.5582011126   -0.5206326931   -1.2667063954
 C    0.6813134346   -2.0478178842   -1.3076995209
 N   -0.6202161342   -2.6838651505   -1.2182172800
 C    1.5834875033   -2.5970623240   -2.4387209552
 O    2.5992644343   -2.9959881000   -1.4638642876
 C    1.8237942415   -2.5883194314   -0.4053086463
 O    2.0636572285   -2.6988466515    0.7555567308
 H    1.0461173436    1.9515131290   -0.0097568450
 H   -0.5696006038    1.9926294136   -0.7274911096
 H   -0.3833343949    1.9462219075    1.0307534890
 H    0.5893885302   -0.3650793978    0.8878436911
 H   -1.0277263851   -0.3057222886    0.1979326962
 H   -0.0820060653   -0.2131519173   -2.1030883206
 H    1.5508729747   -0.0888063588   -1.4467417701
 H   -0.5244574985   -3.6937939458   -1.1569293098
 H   -1.0943069099   -2.3910449887   -0.3696197560
 H    1.1860916961   -3.4674803666   -2.9658990828
 H    1.9849742529   -1.8680120619   -3.1452129858