18

 O   -0.0957663869    1.4223959047    0.0321185724
 C    0.0127338805    0.0601124035    0.0257616510
 C   -1.0521738437   -0.9935190817    0.1525476809
 C   -0.0365872211   -0.9852986786   -1.0406197487
 N    1.1819115203   -1.6707343603   -0.5757268658
 C    0.9663070163   -3.1152276998   -0.3413564877
 C   -0.0280698304   -3.2443600343    0.8612960573
 C   -0.2858022409   -1.7795923705    1.2233990858
 C    0.9670184459   -0.9740228295    0.7392115401
 H    0.6225175029    1.7874136685   -0.4980303665
 H   -2.1186851264   -0.9069907543   -0.0103485019
 H   -0.3431461456   -0.9418382834   -2.0782866610
 H    0.5961372193   -3.5791887647   -1.2597951980
 H    1.9295349069   -3.5792185062   -0.1055482169
 H   -0.9510748301   -3.7665310374    0.5924601993
 H    0.4265401318   -3.7922596567    1.6930337970
 H   -0.6083810487   -1.5769568256    2.2450904965
 H    1.8378414501   -0.7956061937    1.3687062262