15

 C   -0.0330613385    1.4580487564    0.0301371306
 O    1.2912867632    1.9956931670   -0.0310505640
 C    2.0406737186    0.9338146665   -0.6232396177
 C    3.2443668776    0.2134583995    0.0157563766
 C    2.4367398445   -0.2592056158    1.2439118274
 O    2.7595720305   -1.6729305406    1.0737833790
 C    2.5703600026   -1.2169723431   -0.2763632223
 C    1.3885512878   -0.2248838597    0.0518482769
 O    0.0312873461    0.0002128452    0.1236526360
 H   -0.5229617680    1.8609712391    0.9206022816
 H   -0.6038043221    1.6997960500   -0.8765038939
 H    2.0258254716    0.9889035554   -1.7178920325
 H    4.3106206368    0.4205116495   -0.0282128203
 H    2.3835397550    0.1510062576    2.2490245473
 H    2.7325252544   -1.9043667870   -1.1048586847