23

 C   -0.8447267684    1.0475512978   -0.1128269713
 C    0.0286262045   -0.2043687149   -0.1433750506
 C    1.1093247518   -0.2050910288   -1.2653050685
 O    1.6323708743    1.0837627666   -1.6035397295
 C    2.1763559252   -1.1061497711   -0.6921824333
 C    2.0175035963   -1.2783061576    0.6192923100
 C    0.7888306753   -0.5811915753    1.1758852928
 C    1.2179718755    0.6392558651    2.0179661390
 C   -0.0466867706   -1.5259325712    2.0572525606
 H   -0.2477381918    1.9551230555   -0.0005879123
 H   -1.4051569186    1.1452741141   -1.0481500284
 H   -1.5707179836    1.0057564577    0.7061139643
 H   -0.6172511396   -1.0632904221   -0.3666907041
 H    0.6878590732   -0.5743609620   -2.2065043826
 H    2.2652698898    1.3255331456   -0.9191037472
 H    2.9995270502   -1.4833162421   -1.2891852927
 H    2.6902157317   -1.8370040220    1.2644775918
 H    1.7772514019    1.3674434097    1.4228728964
 H    0.3495388693    1.1506911406    2.4456833549
 H    1.8614771067    0.3273114302    2.8479186162
 H    0.5050955943   -1.8185940147    2.9578841302
 H   -0.9735670788   -1.0401806829    2.3823395708
 H   -0.3148505084   -2.4386883683    1.5157474935