22

 C   -0.5391809581    1.1850840071    0.3457359437
 C   -0.0369127154   -0.2481177859    0.1505779715
 C    0.9691293025   -0.7008138479    1.2177200058
 C    0.3296442334   -0.9863746907    2.6020965048
 C    0.3216131886   -2.5000403989    2.2608432221
 C    1.3286281960   -2.2184974472    1.1128170804
 O    2.0612514360    0.1942455801    1.3468045582
 C    2.9106381277    0.2846390009    0.2239691824
 H    0.2902107511    1.8971502637    0.3298114168
 H   -1.2450538033    1.4627967462   -0.4428784820
 H   -1.0514706346    1.3028477226    1.3061982693
 H   -0.8821060091   -0.9474049148    0.1589217045
 H    0.4199129145   -0.3506348535   -0.8422723454
 H    1.0427674867   -0.7443561365    3.3931973410
 H   -0.6263738844   -0.5066997686    2.8250425780
 H    0.6470194368   -3.1856421435    3.0455585878
 H   -0.6484328375   -2.8411955868    1.8900362728
 H    1.1595768864   -2.7150168896    0.1533977029
 H    2.3610125871   -2.3911290212    1.4285056381
 H    3.7743956392    0.8819146175    0.5274197997
 H    3.2668081226   -0.7030597098   -0.1041914765
 H    2.4319020038    0.7800999367   -0.6327983160