17

 C    0.0738955093    1.5925673063    0.0695949879
 C    0.0594623177    0.0737762588   -0.0516633907
 O    0.8202017479   -0.5627026823    0.9666150268
 C   -1.3742067271   -0.5049304220   -0.0366564044
 O   -2.1160184185    0.1188042451   -1.0718464893
 C   -3.4620718831   -0.0509074066   -1.0782826134
 O   -4.1481992872    0.3835775893   -1.9498939229
 C   -1.3708257551   -2.0244601990   -0.2021424360
 O   -2.1391754197   -2.6050293938   -0.9225973256
 H    1.1053240090    1.9542723544    0.0543906122
 H   -0.4781700561    2.0546249577   -0.7509859282
 H   -0.3921594013    1.9105857130    1.0115429059
 H    0.5311728281   -0.2205978500   -0.9962577959
 H    0.6428310964   -0.1122112509    1.7999248579
 H   -1.8159488717   -0.2857038171    0.9515122075
 H   -3.8343908872   -0.5888012421   -0.1887131680
 H   -0.6095712616   -2.5469502908    0.4080429160