15

 N    0.0167188784    1.3427127425    0.0091858116
 C   -0.0487698695    0.0048606753    0.0015154485
 C   -1.2656355854   -0.6559099259    0.0050611733
 C   -1.5029523610   -2.0349612582   -0.0016602076
 C   -0.5923349928   -3.0658398085   -0.0123326250
 C    0.8150091094   -2.9470427352   -0.0186079033
 N    1.6332871537   -1.9279663791   -0.0182697126
 C    1.3507711816   -0.5904962704   -0.0112859865
 O    2.2622713696    0.2332365687   -0.0145945174
 H    0.9566941748    1.7226207504    0.0038606226
 H   -0.8005550213    1.9272216626    0.0173128640
 H   -2.1485413878   -0.0198887873    0.0139158092
 H   -2.5531018395   -2.3190908466    0.0024652194
 H   -0.9777700999   -4.0804048416   -0.0157655312
 H    1.3370311697   -3.9089570467   -0.0252409349