17

 O    0.5009670096    0.1686385708    0.6959292039
 C    0.3110534339    1.2985946715    0.3772812261
 O   -0.9078845728    1.9144658128    0.1313134768
 C   -0.2116869718    3.1094256660   -0.3303025767
 C    0.5355146030    3.6932207415    0.8102527734
 C    1.1350484790    2.5136782108    0.0176865206
 C    2.4756751120    2.5137182166   -0.6180322625
 C    3.5240519078    1.5211123485   -0.1639542232
 C    2.9038776906    1.3871036868   -1.5298836011
 H   -0.5868948226    3.5835578826   -1.2256740245
 H    1.0454243144    4.6348507344    0.6249332356
 H    0.1611383469    3.5597871037    1.8204933756
 H    2.8374340974    3.5045611353   -0.8773002104
 H    4.5488839647    1.8657894731   -0.0856345984
 H    3.2268648256    0.7955043334    0.5842697082
 H    2.2117138515    0.5665688811   -1.6822517049
 H    3.4979760509    1.6413976810   -2.4004392184