18

 O    0.0445644210    1.3777227746    0.0148676678
 C    0.0065572990   -0.0175497357   -0.0143628243
 C   -0.4201702452   -0.7609758168    1.2461366223
 C   -1.3544062731   -0.6345043984    0.0693333660
 C    1.0380348919   -0.6626744117   -0.8637428294
 N    1.0048925447   -1.8297324244   -1.3623880763
 C    2.2949565610   -2.0358531945   -2.0351977775
 C    3.0372367383   -0.6815436243   -1.8857275620
 O    2.1517678511    0.1039302995   -1.0555317087
 H    0.9617209731    1.6379530041    0.1584137102
 H    0.0300434497   -1.7265141785    1.4445988470
 H   -0.6114579844   -0.1356939628    2.1107986338
 H   -2.1757026761    0.0676430196    0.1524733269
 H   -1.5340497285   -1.5105199166   -0.5413739346
 H    2.8364388956   -2.8626802610   -1.5616233638
 H    2.1360727174   -2.3108559579   -3.0827080844
 H    4.0026938100   -0.7576965748   -1.3793110395
 H    3.1735663144   -0.1533871305   -2.8339811834