20

 C   -0.2024507426    1.4321816276   -0.1476286841
 N    0.4265696130    0.1133298465   -0.1790089493
 C    0.7649666371   -0.4156359254    1.0981420676
 C    2.1895914368   -0.4320290115    1.6687841944
 O    1.9908511243   -1.7536351311    2.2454406942
 C    0.6828709248   -1.8169094984    1.6895443127
 C   -0.1905998664   -0.7132189055    2.2343927363
 O    0.0080555580   -0.1574450963    3.4884317825
 C   -0.2673642663   -1.0566816994    4.5497553520
 H    0.4999331681    2.1613217426    0.2689744906
 H   -0.4384133798    1.7432962404   -1.1691849639
 H   -1.1240673443    1.4759664901    0.4553705129
 H   -0.1370642661   -0.5413188157   -0.7065379482
 H    2.9455441590   -0.4666355957    0.8783630536
 H    2.4431640399    0.3132153439    2.4275083681
 H    0.3374035011   -2.7693286398    1.2990161979
 H   -1.2344660218   -0.7902113372    1.9153958614
 H   -1.3164239763   -1.3881508602    4.5380505229
 H    0.3869173222   -1.9356916193    4.5009768228
 H   -0.0796094805   -0.5165966157    5.4807573457