21

 C   -0.0388296967    1.4227642306   -0.0836607714
 O   -0.0647773643    0.0606262423    0.2851291472
 C   -1.2938678919   -0.5668394320    0.0589585131
 C   -1.5918493278   -1.2487151647   -1.3475377524
 C   -0.4905107074   -1.2373608709   -2.3982420549
 C   -1.7793138436   -2.5602560054   -0.5678632284
 O   -0.5307161095   -2.8343271991    0.0785399508
 C   -1.4442998135   -1.9373105981    0.7291144738
 C   -1.8352781065   -2.2315694569    2.1405987031
 H    0.9553207675    1.8047021864    0.1604090337
 H   -0.2176886317    1.5676562298   -1.1585220584
 H   -0.7901422812    2.0058446232    0.4720951996
 H   -2.1268685828    0.0945593983    0.3441440005
 H   -2.5388083908   -0.8817246191   -1.7563302925
 H    0.4485455851   -1.5860412278   -1.9646805934
 H   -0.7498175522   -1.8916441571   -3.2379194138
 H   -0.3321151444   -0.2317664010   -2.8003028565
 H   -2.4230238182   -3.4053861936   -0.7868947110
 H   -1.0314506224   -1.9460416058    2.8279031914
 H   -2.7336525193   -1.6722802804    2.4215483801
 H   -2.0304853685   -3.2994897586    2.2685483895