11

 O    0.0420145717    0.0185663063    0.0160705839
 C   -0.0080130368    1.2058713762    0.0541717964
 C   -1.1258666780    2.2639492207    0.1335725709
 C    0.0150262865    3.2757912718    0.0538969469
 C    1.0064683029    3.0404240217    1.1088186182
 N    1.0703280271    2.1724814734   -0.1113084041
 H   -1.7610741232    2.2289587873   -0.7551254775
 H   -1.7551711391    2.2728078811    1.0270845689
 H    0.0424743283    4.1378208699   -0.6004820225
 H    1.8625332078    3.7028076856    1.1795853836
 H    0.7029788027    2.5883414862    2.0502956051