17

 O    0.0670863631    1.3864828844   -0.0348241381
 C    0.0308072876   -0.0265238200   -0.0963357352
 C    0.8113980451   -0.7334391551    1.0422795893
 C    0.0640543864   -2.0555722748    1.3568236004
 O    0.1299674406   -2.4511515155    2.7136064159
 C   -1.3546019162   -1.8009696459    0.8683416659
 N   -1.8780401806   -0.5180400174    1.4045687346
 C   -1.3742538786   -0.6015517547    0.0093419519
 H   -0.4067489437    1.6304677333    0.7699068176
 H    0.4514591900   -0.2849113135   -1.0744105274
 H    1.8614771990   -0.8954506332    0.7920377803
 H    0.7847084014   -0.0968052901    1.9318226285
 H    0.4941320218   -2.8891672651    0.7907005445
 H   -0.3508994257   -1.7781600063    3.2110901262
 H   -2.0416067634   -2.6302976213    0.7366599424
 H   -2.8942409225   -0.5443053998    1.3911331639
 H   -2.0769322745   -0.4742682250   -0.8074460308