20

 C   -0.2089454067    1.6138093449   -0.0425832805
 C    0.0275427699    0.1137372887    0.0055165019
 C    1.2064338113   -0.5387914490   -0.7521580927
 C    2.4986094587    0.1427932128   -0.2860207134
 C    3.5258307537   -1.0172077092   -0.2516116257
 C    2.6212749940   -1.5499802382    0.8579933423
 C    2.1959681265   -0.1103415212    1.2570204912
 C    0.7158770109   -0.5539415847    1.2011440853
 N    1.2077667929   -1.6841814065    0.2856239992
 H    0.6878997050    2.1754419725    0.2379358044
 H   -0.5037124412    1.9352512674   -1.0476499787
 H   -1.0106700250    1.9050989759    0.6445216578
 H   -0.8896940776   -0.4400071480   -0.2215172414
 H    1.1299548991   -0.8226423495   -1.8030692688
 H    2.7508293712    1.1229181965   -0.6887007824
 H    3.6656413081   -1.6168575029   -1.1571098118
 H    4.4961700759   -0.7019296616    0.1430087359
 H    2.8896788483   -2.3549374416    1.5411027004
 H    2.6631878647    0.5160459450    2.0158483947
 H    0.1999922702   -0.8218357013    2.1247816322