20

 N   -0.2263143807    1.4498952063    0.7516372460
 C   -0.1072866628    0.1898129654    0.0098577445
 C    0.7826606815   -0.8808674096    0.6668991159
 C   -0.1280216079   -1.6048284458    1.7046212303
 C   -1.5782453476   -1.1726939065    1.3790460002
 C   -1.5269161009   -0.4998779453   -0.0210847308
 N   -2.6677785099    0.3875811589   -0.2396136640
 C   -1.5177939125   -1.5311330295   -1.0696560955
 N   -1.4837431800   -2.3341354346   -1.9006768523
 H   -0.1053566344    1.2981861523    1.7483951454
 H    0.5031371124    2.0937527486    0.4684845250
 H    0.2147219482    0.4342054728   -1.0056592552
 H    1.1223538453   -1.5908837453   -0.0927133093
 H    1.6765918510   -0.4390140158    1.1158723805
 H   -0.0090825100   -2.6877915508    1.6265293407
 H    0.1360940153   -1.3378868362    2.7316270408
 H   -2.2977666400   -1.9922712436    1.4052362996
 H   -1.9385301821   -0.4121724981    2.0790790110
 H   -2.4198783548    1.2714491493    0.2059531683
 H   -2.7656445700    0.5867393575   -1.2314420311