19

 C   -0.4027709240    1.4727376712    0.0353202810
 C   -0.0505226857   -0.0055324434    0.0688405656
 C    0.3970437329   -0.5437366532   -1.3070723590
 C    1.2873697728   -1.7573290442   -1.1394199745
 O    2.1053344799   -2.1238370591   -1.9540992506
 C    1.1170771400   -2.5222848847    0.1662939830
 O    2.0488442022   -3.5592529254    0.2693074306
 C    1.2243211276   -1.5314431980    1.3619834218
 O    1.0204299577   -0.1773053982    0.9909602105
 H    0.4751599971    2.0610540676   -0.2485665593
 H   -1.1989754271    1.6629947266   -0.6908282749
 H   -0.7385871577    1.8077491509    1.0197928620
 H   -0.9266596072   -0.5768215652    0.4199289644
 H   -0.4681276273   -0.8205510930   -1.9234688593
 H    0.9612517676    0.2105745711   -1.8647160948
 H    0.0932706193   -2.9372745888    0.1434489256
 H    2.5456344835   -3.5337983376   -0.5658183809
 H    0.5159556037   -1.8205361455    2.1526192795
 H    2.2394070347   -1.6043447511    1.7585978994