23

 C    0.0850608459    1.5346274156    0.1888670822
 C    0.0004900261    0.0200214451    0.0285039548
 C   -1.4285160084   -0.4125103682   -0.3099708815
 C    1.0520787531   -0.6300446873   -0.9295705388
 C    1.3200026912   -1.7251609851    0.1375567223
 C    2.7757054285   -2.1370594523    0.3869761862
 C    2.9204105342   -3.0698825084    1.4991208209
 C    3.0065505774   -3.8384612302    2.4196439231
 C    0.6128695438   -0.8299821624    1.1891685205
 H    1.1054813782    1.8527949331    0.4276490218
 H   -0.2189549870    2.0490772578   -0.7307307526
 H   -0.5710502421    1.8834758679    0.9952745618
 H   -1.7650268085    0.0453565373   -1.2474329563
 H   -1.5077710700   -1.4988551526   -0.4239927754
 H   -2.1261148974   -0.1104057675    0.4797010948
 H    0.6991060096   -0.9575078047   -1.9118025692
 H    1.9239126509    0.0178434733   -1.0735339096
 H    0.7305737474   -2.6238120254   -0.0659208575
 H    3.1899775770   -2.5873492423   -0.5253840335
 H    3.3770587128   -1.2387296591    0.5827317334
 H    3.0958466233   -4.5169424372    3.2312114164
 H    1.3337582334   -0.2535546480    1.7785637990
 H   -0.0851172592   -1.3146595094    1.8766771774