19

 C   -0.0218029526    1.5098566539    0.0015786952
 C    0.0255843784    0.0003535937    0.0267420417
 C    0.9924606352   -0.8093112077   -0.8949061768
 C    0.7404618878   -1.9398408769    0.1614576962
 O    1.5164960172   -3.0656870300    0.2961871908
 C    0.6616674608   -0.7844614514    1.2180715970
 C   -0.7365479063   -2.1847507416   -0.0670720270
 O   -1.2581170663   -3.2693224882   -0.1349280090
 C   -1.3070552437   -0.7681218493   -0.1727411491
 H    0.9744284497    1.9380404617    0.1524404210
 H   -0.4033450550    1.8778501251   -0.9574997807
 H   -0.6767359581    1.8983886632    0.7895700937
 H    0.7008911791   -0.9895710100   -1.9338941480
 H    2.0213769322   -0.4458421968   -0.8426561876
 H    0.9112019759   -3.8196324714    0.2101762409
 H    1.6586249390   -0.4185705118    1.4744084745
 H    0.0659108802   -0.9418771721    2.1221165642
 H   -2.0510081509   -0.5721487462    0.6067390187
 H   -1.7768974425   -0.5925655145   -1.1463348957