18

 O   -0.1536433032    1.4156227985   -0.0371998962
 C   -0.0837023614    0.0309129041    0.0269275032
 C   -0.3938427509   -0.7357598669    1.3123617941
 C   -1.1491426132   -0.0229584586    2.3807448031
 C   -2.3549744490    0.3674625189    1.9594207949
 C   -2.5720868161   -0.0170013255    0.5358976615
 C   -3.9018108623   -0.1837863329   -0.0951028742
 N   -3.0963049343    1.0059463349   -0.4275606863
 C   -1.3392643928   -0.7909987326    0.1144243641
 H   -0.9478030342    1.6287867367   -0.5454023727
 H    0.7281963210   -0.3965850499   -0.5611306202
 H    0.2586804080   -1.5633145554    1.5674521541
 H   -0.7314535650    0.1759067872    3.3602126877
 H   -3.0729324060    0.9576152857    2.5188267341
 H   -4.0184487220   -0.8969111172   -0.9076284499
 H   -4.7880181773   -0.0517501643    0.5202909866
 H   -3.4478647266    1.8031409973    0.0996159680
 H   -1.4571777846   -1.6740799900   -0.5026212919