19

 C    0.4052428268    1.5242361987    0.1061437496
 C    0.1545344950    0.0569167264    0.1192207756
 C   -0.2835535308   -0.7828610293   -0.8268581241
 C   -0.3079602134   -2.1463360989   -0.1217786187
 C   -0.9348635852   -1.7417994139    1.2523527935
 C    0.3701814875   -0.8750667052    1.3295717097
 C    1.0949409970   -2.0725589144    0.6258922451
 C    1.4756782505   -3.2719422426    1.4484708946
 O    1.3476617475   -3.3825851092    2.6436181077
 H    1.4538771636    1.7537709435    0.3356895559
 H    0.1683256181    1.9609425951   -0.8682723861
 H   -0.1969545282    2.0396555088    0.8654237032
 H   -0.5665021798   -0.5858661275   -1.8516461208
 H   -0.6192319325   -3.0286356840   -0.6807303452
 H   -1.8844218543   -1.2042820886    1.2164744337
 H   -0.9608435489   -2.5455213816    1.9906826889
 H    0.7371571455   -0.4561895894    2.2655085918
 H    1.9329302821   -1.8245875815   -0.0357613010
 H    1.9176174895   -4.1019735461    0.8471124064