16

 O   -0.0646912969    1.4217594453   -0.0157332124
 C   -0.1044986416    0.0364217381   -0.0508561420
 C   -0.4260470243   -0.7679002333    1.1657747491
 O   -1.3259941297   -0.0115001580    1.9850526323
 C   -2.3508454615   -0.0693946414    0.9464365291
 C   -1.3963246804   -0.7710649142   -0.0141107449
 C   -1.7729455766   -1.8467285786   -1.0018084470
 C   -2.5485366331   -1.3214783123   -2.1301242524
 N   -3.1711590297   -0.8969973141   -3.0057577895
 H   -0.3089265668    1.6784866553    0.8841037755
 H    0.6536199856   -0.3846521536   -0.7071601856
 H    0.1810379746   -1.5271659704    1.6472976460
 H   -3.1860212198   -0.6951277601    1.2780051122
 H   -2.7108122263    0.9229200415    0.6577917813
 H   -0.8726749245   -2.3326016221   -1.3952664311
 H   -2.3649275390   -2.6333451419   -0.5167053006