13

 C   -0.0827458100    1.4287802646   -0.0163761343
 C    0.0422027809   -0.0701159542    0.0443284062
 O    0.1908444892   -0.6933125139    1.0696549965
 C   -0.0048535916   -0.8667835328   -1.2884052436
 O    0.2481729985   -2.2211723395   -1.0394703920
 C   -1.2980791958   -0.6446735087   -1.9468886071
 C   -2.3614888433   -0.4592693253   -2.4752632027
 H    0.7359948749    1.8449446234   -0.6144966590
 H   -1.0157569035    1.7065896941   -0.5149510153
 H   -0.0513437187    1.8464201779    0.9901535622
 H    0.7891597316   -0.4570219356   -1.9350308936
 H    0.2432978659   -2.2985890300   -0.0697562034
 H   -3.2987806282   -0.3084997800   -2.9519796638