17

 O   -0.1303542704   -0.0296073493   -0.0595263597
 C   -0.0012220337    1.1721923500   -0.1273201742
 C    1.2698410094    1.8999888104   -0.0276998069
 C    1.3535051526    3.2398990908   -0.0336458153
 C    2.7680513584    3.7393066102    0.0733629062
 C    3.5894461996    2.4556654173    0.3597851436
 C    2.6368929418    1.2935634581    0.0543272266
 C    2.9303773258   -0.1128467552    0.3555568588
 O    3.0023426897    0.3775472251   -0.9880937652
 H   -0.8862734490    1.8337727566   -0.2639273254
 H    0.4996567866    3.9048561959   -0.1224635361
 H    3.0652440159    4.2315385164   -0.8624085024
 H    2.8766804192    4.4953278469    0.8588168717
 H    4.4940909196    2.3748836551   -0.2461029928
 H    3.8880260204    2.4274071439    1.4122238074
 H    3.8906625699   -0.3581950757    0.8103858655
 H    2.1128152742   -0.7998393867    0.5521684183