23

 C    0.1504845169    1.6072998092   -0.0272840975
 C   -0.0303170176    0.0875984920   -0.0053930400
 C    0.7260299657   -0.5804723830    1.1414155507
 C    0.5561132249   -2.0929773425    1.2045874014
 O   -0.1574813068   -2.6890737982    0.4206133089
 C    1.3196226887   -2.7843210122    2.2828568795
 C    0.8443293413   -4.1469159578    2.7592434704
 C    2.1148597000   -4.0670866900    1.9828956154
 C    2.2395934378   -4.6407003657    0.5897422393
 H    1.2053316380    1.8833853819   -0.1386257761
 H   -0.3995903833    2.0588592668   -0.8585679140
 H   -0.2128196629    2.0666094416    0.8992440380
 H   -1.0925059418   -0.1667623911    0.0739245422
 H    0.3050814617   -0.3465910543   -0.9534939417
 H    1.8032072367   -0.3643592597    1.0848579286
 H    0.4095051699   -0.1696825113    2.1121178615
 H    1.7665469381   -2.1260992834    3.0207688939
 H    0.8782605023   -4.3457213697    3.8245629078
 H   -0.0292492596   -4.5274309848    2.2400691238
 H    3.0251227630   -4.1331868938    2.5741235916
 H    1.3173971674   -4.5046328238    0.0227303680
 H    3.0562325407   -4.1636685628    0.0366952004
 H    2.4581559688   -5.7129009572    0.6445068779