18

 C    0.1070226544    1.6266257095    0.1508257776
 C    0.1622281318    0.1259133620    0.1430329477
 C   -1.1070395524   -0.7819227626    0.0338920829
 C   -0.2589607438   -1.8656634632    0.6957112750
 C    1.1797168015   -1.6710973140    0.1615109344
 C    0.6771014651   -0.8369508599    1.2968957950
 N    1.1384452373   -0.5545689972   -0.7667579726
 C    1.1216555432   -0.6219456623   -2.1309493189
 O    1.5560241201   -1.5455051022   -2.7852648634
 H    1.1031668282    2.0532733136    0.2991703391
 H   -0.2944703264    2.0129237195   -0.7922047241
 H   -0.5449387843    1.9757998778    0.9574105836
 H   -1.8992627304   -0.4372527721    0.7037742042
 H   -1.5095608514   -0.9507451876   -0.9716811722
 H   -0.5804570114   -2.8066218308    1.1224463200
 H    1.9266776420   -2.4499237873    0.1278089898
 H    1.0548097765   -0.6562830073    2.2924638148
 H    0.7276795897    0.3109389142   -2.5856050630