18

 O    0.1028922990   -0.2698771410    0.4607093692
 C    0.0307567363    0.9468567694    0.4092479242
 C   -1.3707531182    1.5969050044    0.3754292970
 C   -1.5773128277    2.5771244703    1.4923902605
 C   -1.2085518475    3.8576540450    1.4470322406
 C   -0.5256505393    4.4558372008    0.2484423745
 N    0.9216728786    4.2339646750    0.2617260197
 C    1.5987024497    3.0585440432    0.3195738236
 C    1.2618266849    1.7398383646    0.3716314974
 H   -1.4966157665    2.0738202850   -0.6026096469
 H   -2.0803832185    0.7703976382    0.4353547101
 H   -2.0030943163    2.1794647547    2.4104840226
 H   -1.3279209890    4.4934465682    2.3198032353
 H   -0.9445664831    4.0565750964   -0.6830922592
 H   -0.6696271641    5.5388855828    0.2199419782
 H    1.4938215645    5.0596411435    0.2789778316
 H    2.6708707345    3.2462738275    0.3192929791
 H    2.1227197325    1.0788624920    0.3881326125