17

 C    0.1613547451    1.5793045276    0.0465174586
 C    0.0215057368    0.0918466024    0.1094853892
 C   -0.8791464434   -0.6605613128    1.0427365748
 C    0.5982558124   -0.9617604119    1.0376595558
 C    1.0577590908   -1.7052087116   -0.2200750904
 C    0.0469409509   -2.0489244173   -1.2579899060
 C   -1.2976851265   -2.5462556396   -1.1073651237
 N   -2.3592514005   -3.0068341514   -1.0861156371
 N    0.5274916113   -0.6446418395   -1.1393555534
 H    1.1558308688    1.8649162530   -0.3094770375
 H   -0.5774064024    2.0059178828   -0.6418063686
 H    0.0021606228    2.0229073658    1.0337141794
 H   -1.1775584204   -0.0533738203    1.8932288981
 H   -1.6345806972   -1.3719314264    0.7424015861
 H    1.2335467073   -0.8479409885    1.9055621314
 H    2.0742548897   -2.0717933497   -0.3308909437
 H    0.4967239948   -2.4827349226   -2.1505949129