16

 C   -0.0336224904    1.4934714607    0.0956694207
 C   -0.0123058519    0.0068492273   -0.0232702446
 C    0.0462097628   -0.7373133753   -1.1452015893
 C    0.0364262112   -2.1669370157   -0.8181809178
 N   -0.0079785863   -3.2074466114   -1.5613163651
 O   -0.0097092783   -2.8731378267   -2.9183331814
 C    0.0418305074   -2.2822057793    0.6759996932
 O    1.1961810644   -1.6835112265    1.2921523893
 C   -0.0110857803   -0.9017851739    1.1786099939
 H    0.8443576121    1.8538376419    0.6466454667
 H   -0.0475734722    1.9766492856   -0.8842174609
 H   -0.9137121736    1.8310753854    0.6575422668
 H    0.1202625022   -0.3635411223   -2.1568271044
 H   -0.0464857918   -3.7368451396   -3.3431187745
 H   -0.3738852057   -3.1497251072    1.1761432810
 H   -0.4717756897   -0.6117696831    2.1186662463