10

 O    0.1289343509    1.3651312602    0.0424305562
 C    0.0810680328    0.0369742886   -0.0209445604
 C    0.0132099714   -0.7446845964   -1.1453512930
 O   -0.0157505426   -2.0589786737   -0.7028291903
 C    0.0360606394   -1.9671204817    0.6280393916
 N    0.0947087138   -0.7572758896    1.0989903820
 C   -0.0276785889   -0.4737647826   -2.5196212923
 N   -0.0607502974   -0.2313771941   -3.6529062501
 H    0.1714515154    1.6120677202    0.9755633809
 H    0.0246480452   -2.8916106010    1.1841260754