16

 O   -0.0896212146    1.4298251343    0.2328571774
 C   -0.0741116297    0.0300318042    0.1363943113
 C   -0.4760541549   -0.7896060289    1.3017407149
 C   -1.5896460530   -0.1095511435    2.0976928504
 C   -2.4921457561   -0.0811343429    0.8179601134
 O   -2.9868837613    1.1383947130    0.3566828461
 C   -1.3591299546   -0.7636156697    0.0032168915
 C   -1.5379252299   -1.7551967752   -1.0018576788
 N   -1.6894955722   -2.5616664191   -1.8196947138
 H    0.0121965259    1.7883154988   -0.6561628943
 H    0.7535334931   -0.3728848616   -0.4438180162
 H    0.1365230432   -1.6114983673    1.6498558046
 H   -2.0025927992   -0.7403922446    2.8860893330
 H   -1.3374356947    0.8683916919    2.5133522720
 H   -3.3469389955   -0.7522925861    0.9175962863
 H   -2.2321094965    1.7393523867    0.3188323322