20

 C    0.1308906869    1.5909042026   -0.0548925047
 C    0.0573240692    0.0861606493    0.1428532807
 C    0.8384521540   -0.8570761097   -0.8103292353
 N    1.3704943601   -1.6543203352    0.3429851675
 C    2.7724519660   -1.2660218618    0.7137271081
 C    2.2781918061   -0.1252574442    1.6432485420
 C    0.8462590513   -0.5919053799    1.3053332613
 C    0.0080023672   -1.1059487816    2.4447520077
 O    0.1957557442   -0.8582348160    3.6088533228
 H    1.1648252662    1.9400818284   -0.1384021280
 H   -0.3898023259    1.8811603818   -0.9738460884
 H   -0.3391669022    2.1263974494    0.7767967658
 H   -0.9928192893   -0.2221544411    0.2014686559
 H    0.2364414778   -1.4532161041   -1.5020805791
 H    1.6249216051   -0.3516248799   -1.3858002304
 H    3.2825167450   -2.0825442085    1.2328967023
 H    3.3821696860   -0.9663447471   -0.1446758573
 H    2.5241135016   -0.2307532608    2.7008572397
 H    2.5310830885    0.8879816691    1.3253263924
 H   -0.8300713679   -1.7632945605    2.1162545671