22

 C    0.2031160024    1.4861602438    0.1508243754
 C   -0.5967494884    0.3661822711   -0.5264484380
 C    0.2647084355   -0.4458012687   -1.4737789787
 C    0.9879887267   -1.6967042797   -1.0770100191
 C    0.9396304841   -2.2886932969    0.3152591928
 N   -0.1408044731   -1.7444366963   -2.0186403336
 C   -1.4039221974   -2.3507389529   -1.6371197185
 C   -1.5166224628   -3.7326141574   -2.2660822048
 O   -2.1565122882   -4.6383217443   -1.7994835288
 H    1.0074812588    1.0784285072    0.7714989162
 H    0.6613601734    2.1480528278   -0.5919587043
 H   -0.4397149866    2.0979402900    0.7905433046
 H   -1.0573567971   -0.2690139508    0.2354117946
 H   -1.4257951097    0.8061100612   -1.0966893116
 H    0.7520121297    0.1796239791   -2.2242362706
 H    1.9381458979   -1.8872318159   -1.5761345337
 H    0.0497970850   -2.0087092064    0.8820615334
 H    0.9776860068   -3.3830955379    0.2740778863
 H    1.8119839484   -1.9521154082    0.8850353645
 H   -1.6072797097   -2.4481839626   -0.5629439477
 H   -2.2195934848   -1.7483304977   -2.0645156350
 H   -0.9539315511   -3.8311638145   -3.2208743034