19

 C    0.0468168280    1.5201536218   -0.2676963251
 C    0.0831226640    0.0199696772   -0.0257031644
 C    1.3890205390   -0.7194817583   -0.0165854063
 N    0.6244526439   -0.5701514041    1.2095636076
 C    1.1443043159    0.3016912733    2.2636469893
 C    1.7607799793   -0.5662949221    3.3608842006
 O    2.8222334494   -1.3695143472    2.8755796821
 C   -1.0916827313   -0.6759263300   -0.5224596215
 N   -2.0291367481   -1.2069959120   -0.9413490214
 H    0.9782182464    1.9947865717    0.0443151254
 H   -0.0975685571    1.7208445254   -1.3328587055
 H   -0.7823088748    1.9827184951    0.2761764787
 H    1.4525439920   -1.7226058088   -0.4287712284
 H    2.2818809783   -0.1088956954   -0.1436924049
 H    1.9029833136    1.0083647236    1.8948436244
 H    0.3131835312    0.8793952602    2.6845372241
 H    2.1859742039    0.0794907407    4.1364172827
 H    0.9738934713   -1.1790066999    3.8228599344
 H    2.4260381252   -2.0588352510    2.3330137581