19

 O    0.0184426061    1.4192003340   -0.0228073668
 C   -0.0087315119    0.0038458687   -0.0249488516
 C   -1.4223103424   -0.4783421382   -0.0277556322
 C   -2.5275839330    0.2668820366   -0.0281653989
 C   -3.7819336121   -0.5680748380    0.0281334419
 C   -3.2603271283   -1.9967139008   -0.3233585666
 C   -1.7423784987   -1.9562309481    0.0313319943
 C   -3.9974926819   -3.0844113822    0.3014549285
 C   -4.6039206798   -3.9785393899    0.8297984950
 H    0.9372974574    1.7007129045   -0.0363748053
 H    0.5156179265   -0.4073387180   -0.9066133047
 H    0.5117934128   -0.4108705302    0.8575751501
 H   -2.5335452836    1.3492703345   -0.0232130446
 H   -4.2291495712   -0.5496923732    1.0309156064
 H   -4.5615986813   -0.2406603393   -0.6676230405
 H   -3.3339411158   -2.1073307979   -1.4121836960
 H   -1.1475337386   -2.5642660469   -0.6598044656
 H   -1.5622080095   -2.3586540852    1.0373562212
 H   -5.1417346949   -4.7690588404    1.2911378254