21

 O    0.0977491570    1.4189959015    0.0123300946
 C    0.0186663753   -0.0016684610   -0.0024239561
 C   -1.4394434881   -0.4748641638    0.1603680871
 C   -2.3832186466   -0.0005296535   -0.9577607442
 C   -2.2020201557   -0.7433473338   -2.2721960420
 C   -2.0279540687    0.0200216227   -3.5739665544
 C   -0.8678060136   -0.7096862212   -2.9740629882
 O    0.1744832824    0.0528714574   -2.4342818698
 C    0.7328421935   -0.5253403268   -1.2517696152
 H   -0.0102341471    1.6995804270   -0.9049322407
 H    0.5867603054   -0.3480637362    0.8714420503
 H   -1.4595844214   -1.5701359077    0.2369986062
 H   -1.7969243787   -0.0830549713    1.1193354430
 H   -3.4224985288   -0.1131992006   -0.6296543882
 H   -2.2338939751    1.0747633209   -1.1012486436
 H   -2.7338997105   -1.6893746695   -2.3365200671
 H   -2.4668172809   -0.3675554785   -4.4865165161
 H   -2.0083553438    1.1025375386   -3.5046309616
 H   -0.5233871477   -1.6205376904   -3.4648115563
 H    1.7789950980   -0.2037020053   -1.2218987173
 H    0.7055490951   -1.6219508286   -1.3029297703