14

 O   -0.1200498353   -0.2125826647    0.0024474156
 C   -0.0718776414    0.9846304964    0.0052217738
 C    1.1726776971    1.8643888250    0.0005924285
 C    2.4184669035    1.1180051054   -0.0153287339
 C    3.4601106712    0.5228789041   -0.0285381310
 O   -1.1740827772    1.7790603311    0.0139130565
 C   -2.4122633885    1.0596211383    0.0201118052
 C   -3.5001347544    2.0348907920    0.0308233278
 N   -4.3838862198    2.7772803480    0.0393402735
 H    1.0996691711    2.5335842583   -0.8657741027
 H    1.1145749608    2.5205966011    0.8780449245
 H    4.3765784372   -0.0136217733   -0.0403456176
 H   -2.4860774921    0.4187281667   -0.8642717551
 H   -2.4738531721    0.4128420816    0.9011293549