17

 C   -0.0148349058    1.5275501953    0.0900681402
 C   -0.0239772518    0.0306045668    0.0160966461
 C    1.1470674174   -0.7991101172   -0.3495135008
 C    0.5926246910   -0.9723597121    1.0767274706
 C    1.3848906514   -0.7351139484    2.2295561808
 C    2.0407841298   -0.5264978599    3.2170890522
 C   -0.6896217030   -1.7642910912    0.9887933423
 O   -1.1517287884   -2.6468269854    1.6502893144
 C   -1.2874002018   -0.8392063842   -0.1004654051
 H    0.9553429050    1.8964370133    0.4359703602
 H   -0.2100598604    1.9668246835   -0.8951443397
 H   -0.7831913647    1.8945618248    0.7782382962
 H    1.0560444804   -1.6194197012   -1.0567588767
 H    2.1111828135   -0.3012168893   -0.3621048557
 H    2.6155887112   -0.3518135582    4.0925147204
 H   -2.1932836842   -0.3601207113    0.2834657874
 H   -1.4993685696   -1.2739066254   -1.0819146130