15

 C   -0.0681102986    1.4646252517   -0.0293039322
 C   -0.0090630242    0.0119351586   -0.0126693516
 C    0.0512192561   -1.1945851054    0.0009484359
 C    0.1121783114   -2.5977741170    0.0167286126
 C    1.1570836620   -3.4928091709    0.0366751749
 N    0.7045638969   -4.7943828830    0.0463268266
 C   -0.6005128035   -4.6891107108    0.0323863304
 O   -1.4858560214   -5.6966519348    0.0346278841
 N   -1.0329561388   -3.4087689080    0.0142639855
 H    0.9313196255    1.8919913962   -0.1667938369
 H   -0.6981277544    1.8318742042   -0.8476121415
 H   -0.4721386883    1.8649634548    0.9078453967
 H    2.2104410110   -3.2613793991    0.0445185904
 H   -0.9666724148   -6.5109636450    0.0485619054
 H   -1.9880688989   -3.0938836314    0.0016589499