20

 C    0.4240569851    1.6841679412    0.0106452905
 C   -0.1474960638    0.2733492214   -0.1093362914
 N    0.5438556106   -0.4447705314   -1.1798854356
 C    1.7259911065   -1.2162019819   -0.8514850017
 C    0.4621627319   -1.9113857962   -1.2721548377
 C   -0.3111415696   -2.7854659846   -0.2747233167
 N   -1.7385980500   -2.9355870534   -0.5223722261
 C    0.3537996528   -2.3965888994   -2.6371762463
 N    0.2433185167   -2.8327218700   -3.7024941767
 H    1.4826386258    1.6540569566    0.2881203673
 H    0.3378009410    2.2149686260   -0.9409023974
 H   -0.1113864142    2.2492934125    0.7791552200
 H   -0.0764585057   -0.2357558675    0.8646080790
 H   -1.2095968086    0.3236686039   -0.3762359465
 H    2.5657577068   -1.1376381687   -1.5356347411
 H    1.9941414946   -1.3307006752    0.1996481629
 H    0.1437194451   -3.7823720922   -0.2826797712
 H   -0.1660292045   -2.3881420454    0.7336748814
 H   -2.1970096773   -2.0297885780   -0.5364906544
 H   -1.8945552834   -3.3547150679   -1.4347545281