23

 C    0.1274142465    1.3644262480   -0.5486885609
 C    1.4544668748    1.5848110014    0.2439746225
 C    1.2736532591    0.2001139193    0.8499614337
 C   -0.1147678018    0.0429355688    0.2465271631
 C    2.0598176713   -0.5968648387    1.5612813438
 C    3.4737073295   -0.2641200110    2.0172981532
 C    3.8335814091   -1.3889503649    3.0101641851
 C    3.0470957268   -2.6032210813    2.4847562570
 C    1.7013496214   -1.9954018333    2.0400625705
 H   -0.6335140871    2.1389877491   -0.4326888801
 H    0.2899088251    1.1975963085   -1.6158487707
 H    2.3578175916    1.7410783816   -0.3555867535
 H    1.3975209491    2.4012291958    0.9742907558
 H   -0.9287760777    0.1157997891    0.9778707308
 H   -0.2883953348   -0.8592292482   -0.3505126747
 H    4.1617936660   -0.2843254015    1.1601691314
 H    3.5541249670    0.7361955059    2.4549939953
 H    4.9097566127   -1.5689098356    3.0826284033
 H    3.4781300496   -1.1266986992    4.0141955464
 H    3.5656455984   -3.0327359078    1.6187722573
 H    2.9350543961   -3.3994121124    3.2259689016
 H    1.0163280681   -1.9384581019    2.8980913547
 H    1.1900842794   -2.5878020117    1.2741208743