18

 O    0.0541666886    1.3712709077   -0.1595429304
 C    0.0458631481   -0.0122932471   -0.0403070042
 C    0.3892456317   -0.7928771040    1.2646914136
 N   -0.4747459778   -1.8939625230    0.6728811533
 C   -1.2986130168   -0.7640302302    0.0809289310
 C    0.3528131082   -2.2492986474   -0.5348022222
 C    0.7784798132   -0.8673621113   -1.0978963441
 C    1.4715492020   -3.1886261156   -0.1317746080
 O    2.6304580977   -3.0497353659   -0.4296344907
 H    0.9411684113    1.6578685501   -0.4012001185
 H    1.4260376662   -1.0700181757    1.4764156866
 H   -0.0898300408   -0.3810047079    2.1544029182
 H   -1.9645050924   -0.3483071990    0.8396739145
 H   -1.8550943768   -1.0169558920   -0.8261536421
 H   -0.2895418792   -2.8113900790   -1.2253043467
 H    0.4110234613   -0.6771627696   -2.1093470976
 H    1.8647445292   -0.7384300555   -1.0846162093
 H    1.1256048263   -4.0470413547    0.4844814666