22

 C   -0.0041122912    1.3458005016   -0.2139024230
 O   -0.0833836209    0.0691838795    0.3756298963
 C   -1.2988721221   -0.5775255501    0.1324705865
 C   -1.5956172106   -1.1967843469   -1.2859204844
 C   -1.8059603897   -2.5449952028   -0.5814241132
 C   -2.7772681252   -3.6192522692   -0.9593419995
 N   -0.4823334914   -2.8477084303    0.0202777717
 C   -1.4346987212   -1.9663838152    0.7518884882
 C   -1.8732761475   -2.2733043618    2.1504656489
 H    0.9642379137    1.7718252513    0.0595446314
 H   -0.0714970865    1.2988484909   -1.3113841733
 H   -0.8017142997    2.0142351573    0.1500263613
 H   -2.1420417689    0.0611252165    0.4447892207
 H   -2.4902853073   -0.7843677115   -1.7585525039
 H   -0.7560731827   -1.1842709731   -1.9848507781
 H   -2.4478197106   -4.1508257662   -1.8602684006
 H   -2.8838611444   -4.3590079402   -0.1579110990
 H   -3.7686464243   -3.2011871737   -1.1654078332
 H   -0.5605666746   -3.7661732536    0.4604609855
 H   -1.0659864607   -2.0796742115    2.8660699196
 H   -2.7310802192   -1.6561469690    2.4394820346
 H   -2.1659544548   -3.3242027319    2.2536894636