21

 C    0.0162301265    1.5970495676   -0.0868014251
 C    0.0365647201    0.0793870712    0.0206316351
 C    0.9884734494   -0.7062068261   -0.9063805690
 C    1.6606348099   -1.3600284330    0.2585979169
 N    2.3673177377   -0.3368590174   -0.5426755035
 C    3.3675680414   -0.9063178861   -1.4418316942
 C    0.7716423297   -0.5955929517    1.2163946447
 C    1.0540680011   -0.0742010625    2.5658518439
 N    0.1327745521   -1.2195948287    2.3683706096
 H    1.0366385334    1.9877768549   -0.0764841922
 H   -0.4694394751    1.9188886517   -1.0147275943
 H   -0.5361339384    2.0476727551    0.7455533507
 H   -0.9755071459   -0.3372680857   -0.0555158716
 H    0.7702183528   -1.1062719969   -1.8895973747
 H    2.0588767019   -2.3611794236    0.3703728554
 H    3.1000447418   -1.9009963818   -1.8376115626
 H    3.5134165697   -0.2295967005   -2.2898607270
 H    4.3192359592   -0.9967507615   -0.9088024018
 H    1.9875394533   -0.3184235476    3.0654147028
 H    0.6331479615    0.8903032554    2.8393578726
 H   -0.8325839021   -0.9055835629    2.4457030043