18

 O    0.0670300924    1.3236234692    1.0797191513
 N    0.0793418315   -0.0084345007    0.6408910959
 C   -1.0190684860   -0.3552226138    0.0754084124
 C   -1.0574551239   -1.8036774960   -0.3685385789
 C   -1.6626829616   -2.6765152280    0.7230139265
 O   -2.6957712078   -3.2851101387    0.6210874639
 C   -2.1957318888    0.5237724793   -0.1067919443
 C   -2.9076063214    0.6058542515   -1.4511471675
 C   -3.5974970974   -0.0340190680   -0.2886465585
 H    0.9435334458    1.4142610720    1.4673828307
 H   -1.6296968708   -1.9424853609   -1.2887378138
 H   -0.0265851451   -2.1359323132   -0.5266953289
 H   -1.0632388600   -2.6989563515    1.6594630387
 H   -2.1178270654    1.4575581678    0.4326652190
 H   -3.2210871079    1.5915135203   -1.7752542902
 H   -2.5551835716   -0.0333636807   -2.2529723395
 H   -3.7280251166   -1.1095968864   -0.2964723396
 H   -4.3988729654    0.5071675278    0.2015771227