18

 O    0.8148951511   -0.6871110579    0.9546209918
 C    0.0910653681   -0.0424863884   -0.0728516418
 C   -1.3773767107   -0.4486137375   -0.0248743059
 N   -2.0210002882   -0.0865307416    1.2820710044
 C   -3.4684643683   -0.4033648431    0.9521824611
 C   -3.3919982909    0.7892448237   -0.0467999072
 C   -2.4203127224    1.3598457381    1.0264219621
 C   -2.3470708093    0.2407136387   -1.0152473727
 O   -2.2776133604    0.3272081874   -2.2106079568
 H    0.2758029997   -0.6021288266    1.7516614756
 H    0.1957166071    1.0527446766   -0.0122980900
 H    0.5206396504   -0.3532053522   -1.0298897195
 H   -1.4280404772   -1.5371184072   -0.1432961314
 H   -3.6468641351   -1.4117798729    0.5694309928
 H   -4.1081027452   -0.2041170889    1.8147236270
 H   -4.2447501002    1.3184052381   -0.4676575387
 H   -2.9307009115    1.7645284363    1.9026451124
 H   -1.6158762471    2.0309507174    0.7181826568