18

 C    0.2094288244    1.4950431633    0.0386927148
 C    0.0071055131    0.0063585440    0.1440429157
 N   -0.1657010461   -0.6173720777    1.2480170885
 O   -0.1240116548    0.2557145298    2.3462414629
 C   -0.0276217688   -0.8059516497   -1.1108297941
 C    1.2669050176   -1.2210349105   -1.8956788674
 C    1.6151916425   -2.2492963275   -0.7978520910
 C    0.1057279347   -2.3488071363   -1.1309909190
 O    0.4577620093   -2.2538150921   -2.5729268140
 H    1.1666109140    1.7834887485    0.4869398668
 H    0.1986117156    1.8221580763   -1.0029390288
 H   -0.5680574959    2.0265081913    0.5950066961
 H   -0.2954575950   -0.3384779221    3.0844679070
 H   -0.7954148242   -0.4413900823   -1.8009247519
 H    1.9202321203   -0.6060380332   -2.5156393217
 H    2.2129454687   -3.0923426106   -1.1450135362
 H    1.8999249346   -1.8901590854    0.1906685322
 H   -0.6240313000   -3.1021481457   -0.8379772898