16

 C   -0.2232967370    1.1750689335   -0.4062889921
 O    0.8743372057    1.5009822198    0.4471465568
 C    0.5816840200    0.1161034702    0.2156921656
 C    0.0958829088   -0.6480829760    1.4010967018
 C   -0.3834056241   -2.0942225751    1.3710964098
 C    0.5130944357   -2.9302157061    0.4640448741
 O    1.7106564833   -2.4261482887    1.1176841575
 C    0.9058428913   -1.7195575980    2.0678181487
 H   -1.2107920605    1.4026212269   -0.0052574327
 H   -0.0873042527    1.4142248010   -1.4604611618
 H    1.3251163551   -0.3947370638   -0.3931647113
 H   -0.4752803572   -0.0431633870    2.1018730039
 H   -1.3420754984   -2.3979898980    1.7688224374
 H    0.4131826288   -4.0072940642    0.6375422172
 H    0.5032919299   -2.7278691399   -0.6129088448
 H    1.2228284211   -1.7261180746    3.1042652901