21

 C    0.0022130227    1.5687382443    0.0366079880
 C   -0.0036262783    0.0678384007    0.0249866888
 C   -1.2656317572   -0.8022212318   -0.0517479833
 C   -0.6396041285   -1.7749364547    1.0076066124
 C   -1.3801170041   -1.7999830452    2.3369550129
 O   -0.3765415524   -3.1157407097    0.5633679027
 C    0.6406381846   -0.9449990279    1.0199856338
 C    1.1730361122   -0.7777285675   -0.3730607625
 O    1.1300126844   -1.7701054022   -1.3533488908
 H    1.0047330941    1.9581553524    0.2426078306
 H   -0.3152183449    1.9696480880   -0.9337286836
 H   -0.6754872317    1.9723952851    0.7984724395
 H   -2.1687050384   -0.3071367835    0.3145349366
 H   -1.4610954446   -1.2428040436   -1.0336468456
 H   -2.3646892109   -2.2710559822    2.2249049867
 H   -0.8091233003   -2.3669783323    3.0786752643
 H   -1.5364165464   -0.7866180167    2.7179574692
 H   -1.2194513245   -3.5716569590    0.4595331344
 H    1.2449056086   -0.7762560657    1.9056895459
 H    2.1082233055   -0.2212595736   -0.4142915535
 H    0.7337356801   -2.5523997449   -0.9429806963