18

 C    0.1606771295    1.4180649722    0.2484940822
 C    0.0782325758   -0.0704903612   -0.0924156702
 C    0.6673365110   -0.4413030904   -1.4685426205
 C    2.2403804054   -0.3643418972   -1.5252273364
 C    2.2665271638   -1.9000408282   -1.5026992708
 O    3.1323062354   -2.7078251226   -1.3513837274
 C    0.7457601991   -1.9971312296   -1.6959682503
 C   -0.0051771153    0.2792422282   -2.5433030729
 N   -0.5401769623    0.8486995551   -3.3959728362
 H    1.1962655904    1.7736711714    0.2576508091
 H   -0.3939392821    2.0203788372   -0.4770086708
 H   -0.2630086012    1.6064671421    1.2388060994
 H    0.6131125957   -0.6615188388    0.6616762785
 H   -0.9658016804   -0.4029219143   -0.0650186260
 H    2.6308930105    0.0396309971   -2.4634093790
 H    2.7319718993    0.1428384732   -0.6916525276
 H    0.1990040220   -2.6154958340   -0.9797329852
 H    0.4805740132   -2.3092147702   -2.7100743559