23

 C   -0.1164248539    1.3822157170    0.3277410636
 O   -0.1110746968    0.0615972349   -0.1676313070
 C   -1.3489777786   -0.6070521111   -0.0687085075
 C   -1.1876356718   -1.9549092537   -0.8058187046
 C   -2.4346364352   -2.8429449690   -0.7027465395
 C   -0.8003086786   -1.7214272292   -2.2713895462
 C   -1.7373732577   -0.8365736263    1.4118212287
 C   -3.1832501093   -0.5842168108    1.7949070970
 O   -0.9049328585   -1.1795760160    2.2171079437
 H    0.8671063449    1.8070786093    0.1144101274
 H   -0.8829948071    1.9984726625   -0.1686048324
 H   -0.2835130956    1.4155265801    1.4131535327
 H   -2.1412627415   -0.0115265785   -0.5587321455
 H   -0.3572791059   -2.4603019440   -0.2971539324
 H   -2.2815722225   -3.7684172300   -1.2660420451
 H   -2.6637064345   -3.1247730588    0.3293429059
 H   -3.3164231985   -2.3467178576   -1.1263463835
 H    0.0810581536   -1.0827263791   -2.3456425800
 H   -0.5840363316   -2.6739073775   -2.7660997282
 H   -1.6195252137   -1.2409911838   -2.8206335364
 H   -3.8737252193   -1.0596968473    1.0915079248
 H   -3.3704402567   -0.9401719271    2.8090055384
 H   -3.3810657712    0.4942411762    1.7487887462