21

 C    0.0481854928   -1.1735645306   -0.2102546274
 C    0.0599409456    0.0197785968   -0.0775874793
 C    0.0397079654    1.4676462877    0.0874011069
 O    1.3509435692    1.9848304138   -0.0012757160
 C    1.3931415083    3.3908670932    0.1599548167
 C    2.8295216814    3.8460008252    0.0286520350
 C    3.5156065956    3.7778584135   -1.3637885420
 C    4.1807909890    5.1477813720   -1.0599291090
 C    3.1202158868    5.3732724417    0.0527940139
 H    0.0454377566   -2.2288915006   -0.3281158116
 H   -0.6082869080    1.9188365134   -0.6843317973
 H   -0.4122684023    1.7221540466    1.0621524931
 H    0.7661018203    3.8823112408   -0.6055879296
 H    0.9838493215    3.6770478964    1.1454555182
 H    3.4352607144    3.3254816130    0.7777457472
 H    4.1645059927    2.9241468281   -1.5680591370
 H    2.7789621372    3.8540458441   -2.1703700322
 H    5.1844127919    5.0281792994   -0.6419092216
 H    4.2293819019    5.8810329500   -1.8682046297
 H    2.2645916596    5.9483581437   -0.3177915116
 H    3.4492973202    5.8139355718    0.9969494632