14

 O    0.0474619038    0.0292006725    0.3871846507
 C   -0.0133493054    1.1843190329    0.0347964769
 C   -1.3347606291    1.8420452634   -0.3479241091
 N   -1.2945790061    3.1420331108   -1.0021655768
 C   -0.1924288144    3.7487392156   -1.1361665309
 N    1.1219952681    3.3234423872   -0.7940063824
 C    1.3975409139    3.2897019124    0.6478167487
 C    1.2172979325    2.0172445826   -0.1197357107
 H   -1.8779838017    1.1334436945   -0.9846934103
 H   -1.9499228239    1.9345164029    0.5577417412
 H   -0.1930349376    4.7388299807   -1.5926464921
 H    2.4012221141    3.5773332016    0.9442968522
 H    0.6021119012    3.6035733614    1.3186599585
 H    2.1092027345    1.4451694816   -0.3592516759