13

 O    0.0516480784    1.3403600023    0.2104964931
 C    0.0607906853    0.0049665158   -0.0100803634
 C    0.0603201718   -0.7774642347   -1.1239309378
 C    0.0740773198   -2.1523361665   -0.6571197824
 C    0.0790225701   -3.3509675486   -1.3953862705
 N    0.0837369625   -4.3671881170   -1.9576033137
 C    0.0824181574   -2.1068998457    0.7233180733
 O    0.0960360720   -3.0637458320    1.6659784068
 N    0.0742525052   -0.8015959981    1.1136610111
 H    0.0396037488    1.7919715348   -0.6391434258
 H    0.0515297613   -0.4547358695   -2.1516369155
 H    0.1003158253   -3.9238589042    1.2271490018
 H    0.0775914322   -0.4756997967    2.0655736630