16

 C    0.2282642342    1.4160854445   -0.0449933274
 N    0.0043420332   -0.0133558510    0.0345591076
 N   -0.4104256194   -0.7316124170   -0.9986378140
 N   -0.4964944864   -1.9654199618   -0.5716487592
 C   -0.1237797936   -1.9473104899    0.7338852172
 N    0.2029352466   -0.7236008953    1.1412376042
 C   -0.0734735347   -3.1487956101    1.5807209092
 C   -1.1365171963   -4.1853988896    1.4301014614
 N    0.2215879333   -4.4501395139    0.9518434987
 H    1.2716015581    1.6397661850    0.1870181514
 H   -0.0068274554    1.7249367792   -1.0625864289
 H   -0.4199468204    1.9318399835    0.6665059012
 H    0.3867741811   -2.9915936210    2.5506008532
 H   -1.4415680987   -4.7600096910    2.3000443689
 H   -1.9166650490   -3.9881818156    0.7006520010
 H    0.2521743472   -4.3180689560   -0.0579197445