13

 C   -0.0145063541    1.4868618460    0.1197922147
 O    1.2546510353    2.0205938638   -0.3417560782
 C    2.2581767876    1.2228410179   -0.7645418752
 N    2.3164266794   -0.0494401820   -0.8473164607
 C    1.1494204128   -0.6729067610   -0.4293615202
 N    0.9169486854   -1.9854425695   -0.4026419670
 N   -0.3254419180   -2.0422816771    0.0710390227
 N   -0.9248226372   -0.8832469801    0.3561960357
 C    0.0118315984   -0.0003225726    0.0389386520
 H   -0.1601450889    1.8528696320    1.1426569449
 H   -0.7940442042    1.9314730694   -0.5095415684
 H    3.1049020478    1.8363563068   -1.0601524359
 H   -0.7945717944   -2.9219984637    0.2091292655