19

 C    0.0492615990    1.1646246518   -1.0182869297
 C   -0.0381378053    0.2941370134    0.2333255863
 N   -1.2877373738   -0.4705508653    0.2179241129
 C   -1.3845991249   -1.7902766189   -0.3710333358
 C   -0.1122549316   -2.5944768386   -0.5716312392
 O    0.5256648039   -2.6763987455    0.7149385655
 C   -0.3280761813   -2.2701303971    1.7115439214
 N   -0.1215736322   -2.4345984507    2.9461747201
 C   -1.5207966271   -1.6068749149    1.1093134060
 H    0.9520030059    1.7823621148   -0.9915850275
 H    0.0885435805    0.5520340048   -1.9254343622
 H   -0.8219988328    1.8208563528   -1.0942130026
 H    0.8607369658   -0.3322363262    0.3200051795
 H   -0.0707404111    0.9256069792    1.1275248644
 H   -2.2255709488   -1.9762154364   -1.0323031720
 H   -0.3464734894   -3.6061012124   -0.9234071926
 H    0.5979627396   -2.1390852028   -1.2694594011
 H    0.7479851843   -2.9488664066    3.0988725237
 H   -2.4485370409   -1.6165425512    1.6688329330