18

 C    0.0102295851    1.5825750555   -0.0882860269
 C    1.4930005407    1.9074404111    0.0314389217
 C    2.2195136700    0.7220723174    0.5959829177
 C    1.2294581021   -0.4198077459    0.7886030685
 O    1.4766380170   -1.4894706745   -0.1635983667
 C    0.7524143668   -0.7009178128   -1.1505451378
 C    1.7538586446    0.2417318539   -1.8103718313
 N    2.3954171304    1.1198646806   -0.8120999774
 C   -0.0019202346    0.0568468776   -0.0218959021
 H   -0.5453647280    2.0201076995    0.7488400497
 H   -0.4357488719    1.9743603468   -1.0107377440
 H    1.8074000368    2.9303022779    0.2221646290
 H    3.1006299331    0.8005744937    1.2251749922
 H    1.1454567903   -0.7825143268    1.8155630725
 H    0.1995415657   -1.3280078470   -1.8563927046
 H    2.5364454573   -0.3466946399   -2.3002423242
 H    1.2767233669    0.8677337233   -2.5739465300
 H   -0.9507981623   -0.4033564205    0.2505168835