17

 C   -0.0875272986    1.5178217069   -0.0554565934
 N    0.0303629509    0.0563312210   -0.0552057022
 C    0.7795697182   -0.5007192154   -1.1737913721
 C    0.6506658770   -2.0601406536   -1.2109519621
 C   -0.5113988539   -1.9666952202   -2.2429340379
 C   -0.1722040096   -0.4869239190   -2.4286284757
 O   -0.4601268699    0.3591178259   -3.2157493523
 C    2.1289646380    0.0474506009   -1.3514886232
 N    3.1894852900    0.4930901551   -1.4743685621
 H    0.8803264007    2.0391114216   -0.0155130946
 H   -0.6088255140    1.8385721893   -0.9607214403
 H   -0.6857856249    1.8173129420    0.8085613015
 H    0.4506921917   -0.2610541070    0.8132733542
 H    1.5436614883   -2.5363996565   -1.6170225173
 H    0.4048976119   -2.5022281762   -0.2454938771
 H   -0.4341384645   -2.5732610732   -3.1477839975
 H   -1.5042855412   -2.1061659315   -1.8079248577