23

 C    0.2142914615    1.4121590902    0.1565268097
 C   -0.2179448957   -0.0375226111   -0.0962179228
 C    0.5213429449   -0.6700336372   -1.2594663098
 C    1.9357683485   -1.2297773980   -1.2062123084
 C    2.1881226770   -1.9825765832    0.1076696703
 C    0.9845226641   -2.9298367241   -0.2114767965
 C    0.7513288361   -2.1372790087   -1.5082808784
 O    0.4498808743   -2.7289287870   -2.7191117658
 C   -0.9306261652   -3.0014769575   -2.8834035695
 H    1.2824211168    1.4673432558    0.3915201290
 H    0.0395151602    2.0362325699   -0.7269054398
 H   -0.3389189271    1.8537203506    0.9915265452
 H   -0.0682415699   -0.6242650993    0.8165236883
 H   -1.2968336592   -0.0682315700   -0.2977129444
 H    0.3583559957   -0.1556878362   -2.2066646665
 H    2.7054180702   -0.8711811822   -1.8789815831
 H    3.1415942868   -2.5145635051    0.1136565066
 H    2.1166779780   -1.3937449691    1.0272557393
 H    1.3160325825   -3.9482389896   -0.4263742909
 H    0.1639501318   -2.9694755931    0.5118295796
 H   -1.3007172309   -3.7068093320   -2.1254592933
 H   -1.5314186601   -2.0826936383   -2.8269109795
 H   -1.0537504401   -3.4501351648   -3.8718782792