17

 C   -0.0781502078    1.3582247007    0.0814308231
 O    0.0066918093   -0.0702107633    0.1081090062
 C    0.7249986050   -0.5714812353    1.1026425916
 N    1.3482378322    0.0793226338    2.0085447403
 C    1.8209515741   -0.9694828220    2.9194973132
 C    0.5555869589   -1.5799409790    3.6186009555
 C    0.4976698970   -2.5997006759    2.4802633034
 C    1.8859448187   -2.2834371481    2.0607840957
 N    0.7976123520   -2.0013509643    1.1206511620
 H    0.9179886625    1.7982587000   -0.0178478459
 H   -0.6947253535    1.6029939637   -0.7835950091
 H   -0.5353203060    1.7322253519    1.0016581159
 H    2.6594410305   -0.6605655096    3.5388436140
 H    0.8144450015   -2.0939075391    4.5481895527
 H   -0.2858985782   -0.9010686592    3.7812735422
 H   -0.0550005351   -3.5302533236    2.4528405477
 H    2.7232321789   -2.9034021605    1.7618433215