20

 C    0.0639753949    1.6863908571   -0.0694211606
 C    0.0653502924    0.1555750271   -0.0402566584
 O    0.7646569702   -0.2143361966    1.1535307430
 C   -1.3758606271   -0.4065507652   -0.0086588119
 C   -2.1936084246    0.0668685817    1.1759654858
 O   -3.3253317134    0.4714877966    1.0994568337
 C    0.7876008112   -0.3776197352   -1.2815807435
 C    2.2648144284   -0.4068076361   -1.3468779670
 N    1.4926663556   -1.6666910888   -1.2681297942
 H    1.0899305394    2.0590538568   -0.0248816958
 H   -0.3998775725    2.0524639417   -0.9898423414
 H   -0.4880845601    2.0952498450    0.7816068219
 H    0.5388715469   -1.1234291717    1.3768037141
 H   -1.9167101329   -0.1559219725   -0.9253646296
 H   -1.3185491722   -1.5055973967    0.0417581660
 H   -1.6706784056    0.0068967996    2.1556446351
 H    0.2370079138   -0.2027621072   -2.2042794421
 H    2.7737066915   -0.2372847953   -2.2909469366
 H    2.8075122785   -0.0941230554   -0.4600445706
 H    1.5568543754   -2.0053552249   -0.3097629278