22

 C    0.0340730390    1.5432435633   -0.0801983247
 C    0.0459146676    0.0147882458    0.0015345884
 C    0.7222145336   -0.5181092001    1.2599859193
 C    0.5936500916   -2.0413083989    1.3955412188
 N    1.5313082307   -2.6576179480    2.3518053853
 C    2.8976808527   -2.8892896553    1.8763923084
 C    2.6268294258   -1.8302070438    2.8788655584
 C    2.7180370931   -0.3735064453    2.4671608967
 O    2.0984907643   -0.1449334516    1.2179052470
 H    1.0525210698    1.9366777749   -0.0304240220
 H   -0.4209429382    1.8845945372   -1.0147482766
 H   -0.5362963383    1.9795171550    0.7474633240
 H   -0.9787379003   -0.3761663488   -0.0293512993
 H    0.5691864558   -0.4033542277   -0.8671769094
 H    0.2656043532   -0.0416435355    2.1463226663
 H   -0.4259763900   -2.2822743961    1.7207621927
 H    0.7356366354   -2.5082944837    0.4133806843
 H    3.3435576100   -3.8354681496    2.1729737613
 H    3.1433347967   -2.5566595111    0.8697095028
 H    2.8601283342   -2.0163717565    3.9266312549
 H    2.2502855342    0.2594003973    3.2406996634
 H    3.7635614293   -0.0621291915    2.3678040903