17

 O    0.1988761012    1.2246675351    0.3662355270
 C    0.0431242964   -0.1364479142    0.1639857761
 C   -1.3572837375   -0.6838470927   -0.0022589597
 C   -2.5426173471    0.2194818421   -0.2593510887
 C   -2.3396883409    0.6293290334   -1.7530202927
 O   -0.9235172044    0.4506097620   -2.0449277175
 C   -0.4604918131   -0.5550926983   -1.2059597647
 C   -0.6423520321   -2.0642808410   -1.3479534578
 O   -1.3846807907   -2.1202258804   -0.0896516492
 H    0.1045004213    1.6468124476   -0.4989099827
 H    0.7777621300   -0.7504389566    0.6817087753
 H   -3.4850655765   -0.3099324230   -0.1073636274
 H   -2.5208598685    1.0944409604    0.3951115399
 H   -2.9267095766   -0.0143922295   -2.4201814136
 H   -2.5867648186    1.6719799856   -1.9691162232
 H   -1.2739911309   -2.3440827918   -2.1996230216
 H    0.2532530880   -2.6952346685   -1.3251522595