16

 O   -0.0275195199    1.4229424685    0.0391646201
 C    0.0328327481    0.0062567591   -0.0416127756
 C    0.6125429641   -0.6954533017    1.1606843614
 C    0.0083396065   -2.0413203748    1.3251217498
 C   -1.3145914931   -2.0173412988    0.5335541777
 C   -1.7256504512   -0.8715201475    1.4317828837
 N   -0.4368697638   -0.9271299859    2.2221581622
 C   -1.3508414641   -0.6174336045   -0.0195754938
 O   -2.2929523947   -0.2767342883   -0.9688179151
 H   -0.3417462894    1.6450833730    0.9242129532
 H    0.5773119791   -0.2219309327   -0.9629917096
 H    1.5994669471   -0.4592711972    1.5403676524
 H    0.5199999275   -2.9165798259    1.7090209857
 H   -1.8844760433   -2.8491772246    0.1462214848
 H   -2.6676730298   -0.6249279228    1.9019706771
 H   -2.2878224229    0.6882011441   -1.0201584641