18

 C    0.1085753106    1.4644466124   -0.0697669733
 C   -0.0973275511   -0.0537112625    0.0388468132
 C   -1.5903298792   -0.4135204988    0.0166601215
 O    0.5491987108   -0.6901966755   -1.0837703641
 C    1.5625107493   -1.5879762894   -0.6654689870
 C    1.5475857586   -1.5048009248    0.8470835998
 C    0.6101054203   -0.6386932252    1.2350473260
 C    2.4213950900   -2.2574170906    1.6728141352
 N    3.1497598410   -2.8867814859    2.3171868433
 H    1.1736687781    1.7095588022   -0.0650980874
 H   -0.3269101712    1.8278713790   -1.0048998915
 H   -0.3743889715    1.9866629293    0.7621758731
 H   -2.0383858526   -0.0634575721   -0.9176320205
 H   -1.7261892197   -1.4960161924    0.0820105805
 H   -2.1199229028    0.0566901908    0.8512428360
 H    1.3479495013   -2.6066748800   -1.0199870620
 H    2.5371519109   -1.2925906283   -1.0805365431
 H    0.3689634375   -0.3734982881    2.2560918301