18

 N   -0.0025613902   -1.1721040882   -0.0420194422
 C   -0.0096762970   -0.0139255978   -0.0186542505
 C   -0.0174304745    1.4117130668    0.0084442536
 C   -0.6521643260    2.3303637265    1.1325023609
 C    0.7292591790    3.0013184641    1.3282724910
 C    1.2504496080    2.3618536814    0.0183614265
 C    0.7127945491    3.0504406375   -1.2598504306
 C   -0.6660117953    2.3720137651   -1.0721340185
 C   -1.5207469219    3.0134800980    0.0481753364
 H   -1.1549069638    1.9314759949    2.0123083242
 H    0.7523546006    4.0932235085    1.3985669495
 H    1.2448470171    2.5819445410    2.1967958041
 H    2.2732231684    1.9881319219    0.0048161686
 H    0.7352144337    4.1442656375   -1.2888717870
 H    1.2172129796    2.6645414780   -2.1501583634
 H   -1.1799092184    2.0065195265   -1.9599450428
 H   -2.5341776390    2.6024180185    0.0464169987
 H   -1.5839821795    4.1058906296    0.0694259917