20

 C   -0.1656258561    1.4535823176    0.0020652835
 N    0.0146269613    0.0080375865    0.0209619089
 C    1.3186184097   -0.6328441912   -0.2672704293
 C    2.5668347347    0.1543246381   -0.4147741004
 C    3.0613353231    0.9308587886    0.5522511158
 C    2.3905856681    1.0941171424    1.8884194274
 C    1.4203370633   -0.0490871122    2.2560869617
 O    0.4236906898    0.3943799759    3.1771947817
 C    0.6928688235   -0.6925719245    1.0921210450
 H    0.7657620477    2.0299316473   -0.0683137037
 H   -0.7818005358    1.7128464712   -0.8655144054
 H   -0.6988407817    1.7561479764    0.9074723515
 H    1.2321477419   -1.4927015767   -0.9278935335
 H    3.0797151554    0.0849478508   -1.3701012596
 H    3.9723826319    1.4983026148    0.3811830388
 H    3.1461729834    1.1970248826    2.6783772953
 H    1.8163675390    2.0297668721    1.9043343761
 H    2.0092882593   -0.8618521082    2.7132569195
 H    0.8696892016    0.6969225441    3.9751592044
 H    0.1845310697   -1.6088006554    1.3917333621