17

 O   -0.6555008460    0.7725168617    0.7880285625
 C    0.1568977980    1.0175029909   -0.0679175747
 C    1.2386931782    2.0298513007    0.0808779999
 O    2.3809627608    1.8382499150   -0.7812932044
 C    1.5520625060    2.9393036290   -1.0486451828
 C    0.8983181986    3.1467901702   -2.4312228802
 C    1.4005712285    4.6007309857   -2.3886625486
 C    0.8696536819    5.2972819095   -1.1726924977
 C    2.0465148137    4.3660659056   -1.0127404798
 H    0.1582649082    0.5048089913   -1.0553559764
 H    1.4555646945    2.3533455651    1.0974301521
 H    1.4097452829    2.5348445868   -3.1782094530
 H   -0.1827198111    3.0023988430   -2.5206473264
 H    1.8080559921    5.1398817686   -3.2336702968
 H    1.1100252279    6.3522691902   -1.0906100259
 H   -0.1014023783    5.0296948011   -0.7624718901
 H    3.0056292339    4.6839961756   -0.6246052276