19

 C    0.0228315826    1.5976517727   -0.0220958711
 C    0.0706779643    0.0695573926    0.0051219526
 C    0.7415717643   -0.5285807796   -1.2415215950
 C    0.6986207277   -2.0570832257   -1.2038978612
 C    1.2426638526   -2.6312846559    0.0904750587
 O    1.6917190802   -3.7507394809    0.2009857834
 N    1.1913827373   -1.7818156642    1.1892000092
 C    0.7349689558   -0.4598484144    1.2665506869
 N    0.8309548143    0.2629227084    2.3099557935
 H    1.0321450290    2.0179235920   -0.0688960439
 H   -0.5335283378    1.9389828641   -0.9005849274
 H   -0.4543521288    1.9887664114    0.8769354932
 H   -0.9631542737   -0.3098787080    0.0308013227
 H    0.2386239514   -0.1605932874   -2.1409887473
 H    1.7815724382   -0.1829377454   -1.2981473896
 H   -0.3375668844   -2.4087081801   -1.2995741430
 H    1.2602879469   -2.5169603278   -2.0200661045
 H    1.5837744599   -2.1888532578    2.0295735400
 H    1.2775580303   -0.2366336539    3.0818957025