18

 C   -1.0107329759    0.7450666456   -0.9396976707
 N   -0.0144608285    0.3536666834    0.0541543087
 C   -0.5127610407   -0.5805316899    1.0513881219
 C   -0.8043835707   -1.9790483609    0.5651762136
 N   -0.2957625793   -2.4572613892   -0.5540540797
 N   -0.7786805030   -3.7419654980   -0.5612281343
 C   -1.5378015404   -3.9526493806    0.5359418975
 N   -2.2255400331   -5.1243210699    0.7829696860
 N   -1.5739309245   -2.8619752573    1.2780489632
 H   -0.5471475918    1.4213625772   -1.6643332767
 H   -1.4597054107   -0.0955727537   -1.4913406316
 H   -1.8177533470    1.2963840100   -0.4431089741
 H    0.7753053710   -0.0719655816   -0.4205574968
 H    0.2171811108   -0.6472783994    1.8696329828
 H   -1.4274461055   -0.1756298827    1.4994684368
 H   -0.6166253861   -4.3363372261   -1.3558878771
 H   -1.7250644043   -5.9734018391    0.5593322484
 H   -2.5864930604   -5.1429901877    1.7269759420