18

 C   -0.3457949383    1.5268933436    0.1466584354
 C    0.0444193233    0.0532919592    0.0548998848
 N    1.2911108964   -0.1970294788   -0.7236837830
 C    1.8489214662   -1.0957590073    0.3257998784
 C    0.7519359140   -0.6126370872    1.2710155605
 C    0.8055245350   -0.0966725971    2.6531935181
 N    0.1676714185   -1.3916423617    2.3389204966
 C   -1.1002710878   -0.7569705303   -0.3932974862
 N   -1.9944495363   -1.3988674200   -0.7496164459
 H    0.5183820561    2.1044730885    0.4805622263
 H   -0.6581496739    1.8998771456   -0.8330727308
 H   -1.1757671445    1.6738311501    0.8452171577
 H    1.1433880252   -0.6288433187   -1.6291398178
 H    1.7637048347   -2.1681438259    0.1130637524
 H    2.8834838108   -0.8611488675    0.5939605833
 H    1.7280284647   -0.1686242372    3.2232223065
 H    0.1775357484    0.7526780560    2.9098829972
 H   -0.8476853125   -1.3173247913    2.3376546265