17

 C    0.0794488292   -1.1403146755   -0.0251378050
 C    0.0241526294    0.0602522905    0.0074981210
 C   -0.0840499291    1.4856914415    0.0273047831
 C   -0.6389369981    2.4343005856    1.1332501684
 C    0.0145657070    3.2917606567    0.0228904038
 O    1.1490421976    2.3325263180   -0.0036788858
 C   -0.6901156349    2.4337163399   -1.0321472901
 C   -0.6652380935    2.4016577807   -2.5115722168
 C   -1.9909834549    2.4761523032   -1.7518731981
 H    0.1367509620   -2.2007788663   -0.0483859917
 H   -1.7226515576    2.4831305612    1.2583747598
 H   -0.0873220217    2.3989126311    2.0729257664
 H    0.2553007487    4.3534260323    0.0145121821
 H   -0.3335964236    3.2865602071   -3.0448175622
 H   -0.4159233167    1.4647675542   -2.9990818968
 H   -2.6160959380    1.5887625576   -1.7405204251
 H   -2.5417059658    3.4111174521   -1.7786224830