18

 C   -0.0135354823    1.5619788230    0.0110190120
 C    1.2885462716    0.7692870321   -0.0064418984
 C   -0.0245106950    0.0713476502    0.0025166827
 C   -0.5391208577   -0.9865146164    0.9804239839
 C   -2.0721462237   -0.9212472316    0.7999808802
 C   -2.0876496831   -0.9122486206   -0.7656146206
 C   -0.5585040199   -0.9752487231   -0.9771192813
 O   -0.1646877457   -2.0009497558   -0.0080240682
 H   -0.2822746254    2.0778089752    0.9277996157
 H   -0.3002871397    2.0883457733   -0.8942429441
 H    1.8696253354    0.7683090518   -0.9231757964
 H    1.8876631784    0.7577773585    0.8985336049
 H   -0.1193984775   -1.1484340005    1.9735642628
 H   -2.5614250262   -1.8011269407    1.2226126668
 H   -2.5128175719   -0.0243851720    1.2433472795
 H   -2.5852945888   -1.7872728996   -1.1885598185
 H   -2.5369195782   -0.0104041012   -1.1898298098
 H   -0.1585508703   -1.1256803628   -1.9801746413