17

 C    0.2766764938    1.2707149987   -0.5082831565
 O    0.5417019155    2.2640925300    0.4584262993
 C    1.6799248836    2.0537260657    1.2533479475
 C    1.4880256864    1.0831976972    2.4036076155
 N    0.2026120395    1.1120122276    3.1024486864
 C    0.6066783434   -0.1155058024    2.3593815427
 C   -0.1965664442   -0.5746306673    1.1986840415
 C   -0.3293657808   -0.0118572075   -0.0021212272
 H   -0.4225643268    1.7314105954   -1.2157918122
 H    1.1959111886    1.0443187473   -1.0812536526
 H    2.5329195655    1.7158886786    0.6387785037
 H    1.9407532770    3.0348278291    1.6686363257
 H    2.3924256292    0.9819713398    3.0067804394
 H    0.3370551644    0.9689022456    4.1004881571
 H    0.9372485489   -0.9442676547    2.9845621097
 H   -0.7247789529   -1.5105184540    1.3714354945
 H   -0.9487751712   -0.5244123790   -0.7367338543