13

 C   -0.0066229141    1.5403311764   -0.0548943697
 N    1.3709270889    2.0141519979    0.1156296522
 C    2.3407054062    1.2209317495    0.2603395063
 O    2.3585225198   -0.1554249350    0.2927901319
 C    1.1169366370   -0.6923649402    0.1414522193
 C   -0.0208666834    0.0480713548   -0.0241526910
 N   -0.9730979657   -0.9085122413   -0.1283570020
 N   -0.4420697109   -2.1487004001   -0.0315053599
 N    0.8494534230   -2.0121077562    0.1351393010
 H   -0.6234342556    1.9830860240    0.7392787696
 H   -0.3951172369    1.9450782363   -0.9995898543
 H    3.3536357269    1.5920092034    0.3852453504
 H   -1.9677205253   -0.8165912195   -0.2609886639