19

 C    0.0070273949   -1.1783813258    0.0194272620
 C   -0.0190347126    0.0250815050    0.0374305011
 C   -0.0417526427    1.4584444623    0.0440553036
 C   -0.6730057690    2.4120784334    1.0957208362
 C   -0.0579513338    3.3465622512    0.0294577913
 C    1.2009863070    2.4251940127   -0.0417700479
 C    1.7397825759    2.4050955759   -1.4702785082
 C    0.3982849884    2.3874984264   -2.2595230004
 C   -0.5890035887    2.4016979304   -1.0948766827
 H    0.0274804853   -2.2398284837    0.0085379562
 H   -1.7636718635    2.3931247776    1.1708291848
 H   -0.2087196684    2.4135337117    2.0856647423
 H   -0.0639776986    4.4370313928    0.0153730353
 H    1.9060459572    2.4255819116    0.7915769757
 H    2.3507126321    3.2860387229   -1.6910748050
 H    2.3532179325    1.5198445929   -1.6630317158
 H    0.2774532471    3.2588581224   -2.9108143965
 H    0.2861553125    1.4927454565   -2.8791760707
 H   -1.6596907056    2.3787768338   -1.3062548613