16

 O    0.1552815360   -0.1353250355   -0.0647820426
 C    0.1409385087    1.0629796043   -0.1989070580
 C    1.3554135548    1.9232703132   -0.1197652689
 N    2.7556150001    1.3894413646   -0.0835142068
 C    2.8999115979    2.8865994743    0.0379208387
 C    1.8263718304    3.0785902967   -1.0882742147
 C    1.0268086107    4.3237343289   -0.7505174322
 C    0.9137463646    4.2978530928    0.5802576139
 C    1.6533948778    3.0351320949    0.9841124738
 H   -0.8059127904    1.6222403300   -0.3675192660
 H    2.9278408026    0.9439510250    0.8219560443
 H    3.8744990059    3.3742665017    0.1241389320
 H    2.0807791978    2.8181353082   -2.1137771849
 H    0.6529096264    5.0494882119   -1.4586450962
 H    0.4232593935    4.9966108260    1.2432710078
 H    1.7252876132    2.7246639330    2.0274329599