20

 N   -0.1576693396   -1.1672030936   -0.3393684181
 C   -0.0966315529   -0.0232218365   -0.1871260427
 C    0.0057499776    1.4220711201    0.0006563680
 C    1.4449635307    1.9484000695   -0.1932522838
 C    1.5002124875    3.4635739162   -0.0487970952
 C    1.4292568850    4.1773873952    1.3452906989
 C    2.9018197680    3.7391348620    1.5987512513
 C    2.8556466888    4.2240408696    0.1190956698
 C    2.0150130255    5.4301339303    0.6311749831
 H   -0.6757685735    1.9125188797   -0.7044923275
 H   -0.3545341852    1.6681728375    1.0060622367
 H    2.1038823487    1.4408797532    0.5153692992
 H    1.7906659202    1.6679380120   -1.1949113151
 H    0.8411116448    3.9218608988   -0.7979401986
 H    0.6027915629    4.1577456751    2.0582907776
 H    3.4745996769    4.3629475860    2.2898878407
 H    3.0979293519    2.6824663624    1.7848642858
 H    3.6815445042    4.2520954049   -0.5935870191
 H    1.3711654414    5.9281800319   -0.0991311113
 H    2.5366898570    6.1502869857    1.2662402503