20

 C   -0.4486637072    1.4440829517   -0.1927674081
 C    0.1724191708    0.0572838046   -0.2090411292
 C    1.6380800048   -0.1377245591   -0.6986143292
 C    1.8206817532   -1.2250672523    0.3966956105
 C    0.5884204816   -0.6404685458    1.1069044727
 C    0.7157758016    0.1121084063    2.4498538479
 C   -0.2657302071   -0.9268377140    2.9441867421
 N   -0.8226518712   -1.1692004789    4.0410284570
 O   -0.3631562840   -1.5660274653    1.7255343641
 H    0.1999760736    2.1681800883    0.3122699858
 H   -0.6132884400    1.8069244006   -1.2127840082
 H   -1.4177639143    1.4427802047    0.3181402656
 H   -0.4808289630   -0.6411845718   -0.7449736889
 H    1.7846529602   -0.4396512257   -1.7369992050
 H    2.2490145130    0.7483417072   -0.5016933753
 H    1.6016090117   -2.2271241893    0.0184850130
 H    2.7594096300   -1.2517932491    0.9548478119
 H    1.6986903737    0.0770151252    2.9234088282
 H    0.3380734387    1.1356039361    2.4694925909
 H   -1.4370482262   -1.9823735433    3.9693281942