20

 O   -0.1035369864    1.4939222256   -0.2117421707
 C    0.0598273587    0.1029948570    0.0343901208
 C   -1.3112299485   -0.5353688549   -0.0507842810
 C   -2.0877609478   -0.5881834310   -1.3984347302
 C   -1.3123151082   -1.2723743246   -2.5418301794
 N   -1.5794968210   -2.6479079428   -1.9970961537
 C   -0.6581122781   -2.9270523678   -0.8444365485
 C   -1.4947132238   -2.0689811304    0.1285887351
 C   -2.5654524003   -2.0249838246   -1.0110713587
 H    0.7659151787    1.9046479637   -0.2111548818
 H    0.7466885517   -0.3475542850   -0.6980177572
 H    0.4876668173   -0.0817541603    1.0342974563
 H   -1.9595144266   -0.0342005754    0.6775311225
 H   -2.7345522771    0.2551120431   -1.6383705338
 H   -1.8159213901   -1.1604110155   -3.5076110989
 H   -0.2524603850   -1.0294280780   -2.6792847482
 H   -0.7054791342   -3.9921038993   -0.5933512927
 H    0.3914240155   -2.6640784743   -1.0187574584
 H   -1.6577681574   -2.4431365065    1.1405363101
 H   -3.5898309073   -2.3927898790   -0.9646811517