21

 C    0.0696843212    1.3307277878   -0.4783061116
 C   -0.0030791035   -0.0759935548   -0.1091629064
 C   -0.0511523688   -1.2383478600    0.2010826320
 C   -0.1432069980   -2.6471670999    0.5640067421
 C   -1.4927478336   -3.2604822034    0.1779235730
 O   -1.4738832317   -4.6179456498    0.5800374384
 C   -2.6563117970   -5.2946205274    0.2917258225
 C   -2.8563960286   -5.8771237675   -1.0852061105
 C   -2.5473308293   -6.7711868264    0.1008768519
 H    0.9759547783    1.5454583973   -1.0555283362
 H   -0.7890706369    1.6264772875   -1.0912865617
 H    0.0808864343    1.9763570647    0.4069272159
 H    0.6522255611   -3.2235445405    0.0756914447
 H    0.0007515458   -2.7772904176    1.6435941501
 H   -2.3099991105   -2.7175809337    0.6774410920
 H   -1.6549438747   -3.1768479321   -0.9064484819
 H   -3.5332670352   -4.9020693649    0.8089715356
 H   -3.8548688758   -5.8914779985   -1.5082017252
 H   -2.0585713358   -5.7223914326   -1.8030587712
 H   -1.5489093073   -7.1895434900    0.1554164175
 H   -3.3306951438   -7.4049054281    0.5006825791