19

 O   -0.1118128169    1.4283794790    0.0779465593
 C    0.0223516259    0.0172832391    0.0038685388
 C    0.7712091529   -0.5350429404    1.2215704942
 O    0.9744051993   -1.9338369623    1.1196324958
 C   -0.1783926360   -2.6817677786    0.8458873547
 C   -1.4604854415   -2.5553576102    1.6413720809
 C   -1.4044151904   -2.0733386188    0.2105728674
 O   -2.1451044812   -2.8597471644   -0.6861297534
 C   -1.3892799980   -0.5693921892   -0.0679931065
 H    0.7656605937    1.8196607962    0.0153447178
 H    0.5856436214   -0.2809075734   -0.8951940408
 H    1.7718618548   -0.0951938257    1.2906651854
 H    0.2256749624   -0.2653462899    2.1396176843
 H    0.1016033572   -3.6808046830    0.5298594607
 H   -2.0064062209   -3.4723631868    1.8314078129
 H   -1.5359256949   -1.8057812182    2.4216042650
 H   -1.6902213648   -2.8510710196   -1.5359481613
 H   -2.0202336129   -0.0272597203    0.6454262456
 H   -1.8155146502   -0.3918897834   -1.0596413007