21

 C    0.1488155666    1.4493140642    0.2234945445
 C   -0.1114643664   -0.0123290218   -0.1644214347
 C    0.6433205928   -0.4655808511   -1.3934011267
 C    0.4197865750    0.1657181681   -2.7607702267
 C    1.3951470210   -0.6578154456   -3.5765881359
 C    2.5925952875   -1.0565724050   -2.7326231450
 C    1.4996343668   -2.0661139727   -3.0210765241
 C    0.9943026696   -1.9363231904   -1.5636140731
 C    2.0893262563   -0.9268280275   -1.2737849623
 H    1.2148922190    1.6250711277    0.4010894370
 H   -0.1739263590    2.1362598182   -0.5652935698
 H   -0.3938198799    1.7147513020    1.1361939692
 H    0.1590481952   -0.6625617591    0.6771957749
 H   -1.1877297226   -0.1604778155   -0.3259291260
 H   -0.6160701465    0.0478066013   -3.1020112370
 H    0.6678878111    1.2332547051   -2.7737539113
 H    1.5301520267   -0.4983049931   -4.6399705699
 H    3.6192666039   -1.0317150383   -3.0710949031
 H    1.5272453669   -2.9645966338   -3.6220642877
 H    0.6017067867   -2.7264895308   -0.9373811937
 H    2.6948602092   -0.8033787822   -0.3855992987