19

 C    0.0034094259    1.5046924051    0.0838397300
 C    1.4918845869    1.8887693959   -0.0282242401
 O    2.1325098102    1.9111540996    1.2528212425
 C    2.4639345206    0.6686591064    1.8558531983
 C    1.3630059545   -0.3361634389    2.1284734093
 C    0.3384836937   -0.6754923319    1.3419499297
 C    0.0352643917   -0.0384487706   -0.0037055938
 C    1.2199597343   -0.2516642180   -0.9415914179
 C    2.0266169368    0.8100637448   -0.9521259827
 H   -0.4456859636    1.8825301058    1.0038631792
 H   -0.5417442849    1.9113599573   -0.7747576709
 H    1.6356212378    2.9033371211   -0.4102857414
 H    3.2451112469    0.1583015002    1.2664268645
 H    2.9236152110    0.9525647192    2.8074329296
 H    1.4854106178   -0.8752220930    3.0662248874
 H   -0.3303939526   -1.4654487421    1.6752027554
 H   -0.8946790936   -0.4510817798   -0.4043905353
 H    1.3947922237   -1.1919651535   -1.4525151396
 H    2.9740757129    0.8874566825   -1.4725803244