18

 O    0.0254464257    1.4699486554   -0.0941267637
 C    0.0380971952    0.0730643168   -0.0020878413
 C   -0.0839801673   -0.6298364966    1.3806939908
 C   -1.5336537100   -0.0737501292    1.4811250968
 O   -2.4352413018   -0.7264944771    2.3290518255
 C   -2.7044749936   -2.0573743208    1.9081755346
 C   -1.4309297386   -2.7327646709    1.3979106417
 N   -0.5975289978   -1.8243668827    0.5898607303
 C   -1.3391591873   -0.6112959635    0.0184379857
 H    0.9245690583    1.7875255329    0.0321121715
 H    0.7541669617   -0.4106260207   -0.6737161974
 H    0.6653574680   -0.7544663567    2.1657219591
 H   -1.6561683822    0.9999721211    1.6229195891
 H   -3.1395031002   -2.5854058838    2.7614523900
 H   -3.4574832552   -2.0368131117    1.1051791198
 H   -0.8116651471   -3.0896225120    2.2294178446
 H   -1.6927220347   -3.6060876141    0.7890990630
 H   -2.0530543632   -0.6959396863   -0.8021382301