21

 C    0.2956614187    1.0011580567    0.8678122687
 C    0.2281999100   -0.1295043218   -0.1415431326
 O    1.1751252488   -0.4235779329   -0.8374875431
 C   -1.0845327199   -0.8841878619   -0.2182240526
 C   -1.3212754718   -1.7674588684   -1.4522134132
 O   -1.5035260724   -2.9524815626   -0.6529385836
 C   -1.1869958122   -2.2482251531    0.5768268753
 C    0.1048237457   -2.7899765665    1.1756568863
 C   -2.3515636354   -2.3189252980    1.5546548274
 H    1.3137591176    1.3861667477    0.9339409545
 H   -0.3809956118    1.8084734768    0.5627090708
 H   -0.0438165523    0.6634983673    1.8535717074
 H   -1.9164429811   -0.2210516070    0.0302217569
 H   -2.2113092241   -1.5314402446   -2.0458963754
 H   -0.4452612134   -1.8399839052   -2.1050667580
 H    0.9303831553   -2.7126533216    0.4654944291
 H    0.3774999473   -2.2528780811    2.0910351820
 H   -0.0348400446   -3.8452617659    1.4298527279
 H   -2.5038688810   -3.3524995743    1.8820474515
 H   -2.1564659004   -1.7052992774    2.4411535977
 H   -3.2748838532   -1.9708963362    1.0835862132