13

 N    0.0123344656    1.2646075480   -0.1117789290
 C   -0.0205028098   -0.0679800535   -0.0529745201
 N   -1.1369300946   -0.7344731007   -0.0264467964
 C   -0.9939201388   -2.0888685022    0.0341621344
 O   -2.1649506909   -2.7466157723    0.0587053298
 N    0.0787742916   -2.8167188291    0.0689664839
 O    1.2964879811   -2.0760269820    0.0394113865
 C    1.3076702811   -0.7321204686   -0.0199911448
 N    2.3688378453   -0.0307266226   -0.0482067296
 H    0.9156283337    1.7124745119   -0.1292571169
 H   -0.8458730207    1.7884908698   -0.1374207705
 H   -1.9583050973   -3.6910149206    0.1006896754
 H    3.2054109238   -0.6140303181   -0.0201795427