21

 C    0.0229527816    1.5366509820    0.0998187161
 C    1.3496344537    0.8340910680   -0.0817123271
 C    0.0420182089    0.0297164243    0.0128954576
 C    0.1235492011   -0.6025805382   -1.3721909818
 C   -0.7606124761   -1.2128887983   -2.4698752373
 C    0.1506307014   -0.4533471129   -3.5057840579
 C    0.6380179800    0.4945022751   -2.3485976058
 C    1.9097326209    0.4052148164   -1.4831693682
 C    1.6271911014   -1.1193996411   -1.3617038147
 H   -0.1440286439    1.9414047301    1.0939445434
 H   -0.4233297414    2.1396228839   -0.6815911725
 H    2.0554995354    0.8451240281    0.7415872090
 H   -0.1899434783   -0.5664757685    0.8887877738
 H   -0.8142184931   -2.3034513027   -2.5357620931
 H   -1.7776381203   -0.8085422819   -2.4659932951
 H    0.9120616757   -1.0815181628   -3.9698452530
 H   -0.3826187129    0.0738266014   -4.2991745033
 H    0.1377695933    1.4603963415   -2.4130488353
 H    2.8857701545    0.8144164090   -1.7539682655
 H    1.9596737399   -1.6151102165   -0.4461202642
 H    1.9161550183   -1.7131302169   -2.2302295852