14

 O   -0.0418656261    0.4249059872    1.0251916641
 C   -0.0308302625    1.2758706653    0.1604515837
 C   -1.3256332758    1.7077342560   -0.5338681528
 C   -1.2833505912    3.0709272449   -1.1780935539
 O   -0.8105498527    4.1464445773   -0.3766817191
 C    0.0209841935    3.6972385095   -1.4693253996
 C    1.2583748521    2.9734805766   -1.0922015863
 C    1.2320732905    1.8802844505   -0.3190434925
 H   -1.5357338291    0.9565694779   -1.3079098535
 H   -2.1410603032    1.6385522987    0.1925453326
 H   -2.1311479207    3.3240977406   -1.8155611229
 H    0.0990522866    4.4136180495   -2.2838508993
 H    2.2029062332    3.3781622934   -1.4453597361
 H    2.1406178556    1.3851226325    0.0079477956