18

 C   -0.0637750039    1.4365517666   -0.1682204249
 C    1.4743403743    1.5322448688    0.0713471434
 O    2.0465910477    2.3455049734    1.0693459101
 C    1.3844108561    2.4015072737    2.3081534733
 O    1.2816631634    1.1761442375    2.9737365050
 C    0.2138848843    0.3364221297    2.5550910825
 C    0.4806448899   -0.4243997384    1.2590893082
 C    1.4570917926    0.0122903332    0.2443007357
 N   -0.0334401806   -0.0616541587   -0.0865403251
 H   -0.7365407875    1.9190130326    0.5446412774
 H   -0.3535578547    1.7444035798   -1.1740632519
 H    1.9906137962    1.8134156233   -0.8485615332
 H    2.0044040488    3.0487231426    2.9324469408
 H    0.3827488880    2.8488542726    2.1913862765
 H    0.0866979571   -0.3901808752    3.3617608421
 H   -0.7215483958    0.9122851255    2.4917138916
 H    0.4237679819   -1.5042672484    1.3738380541
 H    2.1787330022   -0.6684295086   -0.1960236656