16

 N   -0.0569126224    1.3459748415   -0.0797372549
 C    0.0568333568   -0.0080006824    0.1108464607
 O    1.1208299703   -0.5555258402    0.3372192292
 N   -1.1606219781   -0.6991921077    0.0644735807
 C   -2.4496004550   -0.1349338343    0.1428036149
 C   -3.3489047970   -1.1534214253    0.0868389971
 C   -2.6319395290   -2.3852477048   -0.0423533586
 C   -1.2914522617   -2.0878636987   -0.0479280034
 N   -0.1883320318   -2.8959688757   -0.2520131233
 H    0.8290093555    1.8165545461   -0.1757904336
 H   -0.8129254279    1.6985044069   -0.6439249590
 H   -2.5752542648    0.9126271120    0.3520123701
 H   -4.4211728079   -1.0449168542    0.1501449007
 H   -3.0515952333   -3.3750185909   -0.1326216173
 H   -0.3621064071   -3.8659957666   -0.0359910762
 H    0.6594552734   -2.5274198756    0.1601434128