19

 O   -0.0882726418   -0.0140997707    0.1645442344
 C   -0.0077196252    1.1976041298    0.1571471430
 N    1.1400617569    1.8994546138   -0.0307894897
 C    2.4130085976    1.1955283131   -0.2241346813
 C    3.4674561357    2.1289784811   -0.8968560046
 N    3.1869072181    3.5722615939   -0.7588959322
 C    2.5383159180    3.8059274812    0.5845282168
 C    1.1941778935    3.3512369580   -0.0360526469
 C    1.8283339267    3.8305084924   -1.3628931927
 H   -0.8803830512    1.8652191044    0.3059353712
 H    2.7813865940    0.8479148198    0.7485403302
 H    2.2230948118    0.2995896978   -0.8186730966
 H    4.4496541000    1.9217733943   -0.4606550753
 H    3.5404010957    1.9169607748   -1.9679052033
 H    2.9501986907    3.2359194484    1.4207327371
 H    2.5547092542    4.8723407620    0.8233118764
 H    0.2425437221    3.7606760336    0.3121874027
 H    1.7000231920    4.9014779198   -1.5460216653
 H    1.6002444212    3.2647563625   -2.2700352639