14

 C   -0.0411586956    1.5598244299    0.0070022101
 C    0.0310910077    0.0494787905    0.0271134538
 C    1.3313028551   -0.6839927023   -0.2644496334
 O    2.5128735111    0.0355298528   -0.4431876106
 C    0.7421455803   -0.7022037151    1.1278710004
 O    1.4220622436    0.0881040487    2.0760675090
 H    0.9154301942    2.0111786032    0.2740162032
 H   -0.3057487044    1.9132306178   -0.9946672416
 H   -0.7956759007    1.9303537638    0.7082212237
 H   -0.8644395093   -0.4510587857   -0.3335309651
 H    1.3072710386   -1.5794520797   -0.8782999640
 H    2.7131150849    0.4342809193    0.4152589951
 H    0.2865690486   -1.6043210588    1.5312407232
 H    2.0439562757   -0.4838652644    2.5394501063