13

 N    0.1392532665    1.4643508909   -0.0309010737
 C    0.0111972587    0.0672223330   -0.0476380009
 C   -1.0263117411   -0.8356806119   -0.1091998627
 N   -0.6114533420   -2.1650675670   -0.0967076228
 C    0.6796287941   -2.0457494799   -0.0272655819
 O    1.7275668675   -2.8883317390    0.0234298009
 N    2.9008920812   -2.0943402816    0.0927941409
 C    2.5054318671   -0.8569754490    0.0801091486
 N    1.1445086828   -0.7602011412    0.0065144879
 H   -0.2178449554    1.9016012313   -0.8724383510
 H   -0.3138123674    1.8903980348    0.7691346904
 H   -2.0782788137   -0.5946659871   -0.1633029830
 H    3.1861213917   -0.0221411834    0.1228373073