21

 O    0.0708715595    1.4581320562   -0.1313489361
 C    0.0075612778    0.0672436459    0.0177438137
 C   -1.3608677458   -0.5395294748    0.1501302615
 C   -2.6184741984    0.2988642930    0.0519726719
 C   -3.7366160108   -0.4170750989   -0.7211590987
 C   -3.4849024329   -0.6849260284   -2.1852213355
 C   -2.3595330183   -0.5813249799   -2.8955828366
 C   -0.9806206350   -0.1685863237   -2.4188454507
 C   -0.5447837410   -0.7942128987   -1.1030184370
 H    0.8292697275    1.6632272945   -0.6884526658
 H    0.8052724535   -0.3522275717    0.6308078123
 H   -1.4353114242   -1.3746281805    0.8427504370
 H   -2.9770022456    0.5357314330    1.0611110401
 H   -2.3936344916    1.2579468789   -0.4210651247
 H   -3.9720851643   -1.3716440925   -0.2244068439
 H   -4.6603774952    0.1733722911   -0.6414896738
 H   -4.3750287623   -1.0058444581   -2.7260969122
 H   -2.4282237654   -0.8041306027   -3.9588712673
 H   -0.2500981185   -0.4320343286   -3.1925343965
 H   -0.9313223198    0.9241993542   -2.3328607374
 H   -0.1124159992   -1.7866610383   -1.1972603305