17

 C   -0.1995594599    1.4171518950    0.3382976867
 O   -0.3417236286    0.0363473071    0.5951129876
 C   -1.0148253848   -0.6372566600   -0.4370644903
 C   -1.1607486162   -2.0819817068   -0.0855282704
 C   -1.0018326799   -2.8254780016    1.0470766544
 C   -0.5901933255   -2.4771105352    2.4376250687
 N   -1.3194696689   -4.1227127362    0.6861261861
 N   -1.6440260586   -4.2022783518   -0.5217942545
 O   -1.5545681729   -2.8837570765   -1.0786101133
 H    0.3327800314    1.8494267830    1.1876115257
 H    0.3801617401    1.5993081324   -0.5791742795
 H   -1.1768040093    1.9129633192    0.2361055774
 H   -2.0146879135   -0.2002472859   -0.6086297894
 H   -0.4693499487   -0.5540288327   -1.3921860515
 H   -1.3660868206   -2.7669390202    3.1534312519
 H    0.3249618274   -3.0094571224    2.7166636759
 H   -0.4112404616   -1.4062220475    2.5207052146