18

 C    0.1776712580    1.3721724523   -0.2254899470
 C   -0.0498628305   -0.0882554222   -0.0782637635
 C   -1.1533716237   -0.8497998334    0.1852766137
 N   -2.4618674189   -0.4229425500    0.4680785059
 C   -0.7061938031   -2.2152816438    0.2118834341
 C    0.6309006292   -2.1920557092   -0.0267241530
 C    1.6772502906   -3.2414346379   -0.1651750420
 O    2.1767419517   -3.3676689608   -1.4942973656
 O    1.0505602120   -0.9069320552   -0.1960929430
 H    0.7012826432    1.8074786710    0.6354694849
 H    0.7741494861    1.5936804845   -1.1177660139
 H   -0.7769387012    1.8974411708   -0.3270026377
 H   -2.6311222690    0.5346406211    0.1869776345
 H   -3.1605761244   -1.0168820637    0.0385667524
 H   -1.3103830453   -3.0919329868    0.3899768810
 H    2.5004855537   -3.0422415340    0.5392298930
 H    1.2451099303   -4.2109649711    0.0958036411
 H    2.4772122913   -2.4931125418   -1.7632903247