17

 C   -0.0467569946    1.5505621209   -0.0237154378
 C    0.0478114624    0.0138045102   -0.0179837347
 C    0.7330487573   -0.4777046941   -1.2187499138
 N    1.2671566336   -0.8801930635   -2.1614582057
 C    0.7384234361   -0.5164527346    1.2646536506
 C    0.8838756805   -2.0622804756    1.3376082789
 O    2.3077101141   -2.2724809092    1.4936919738
 C    2.8559270206   -1.0398199885    1.4809374499
 N    2.1182620220   -0.0137162328    1.3763348236
 H    0.9506878737    1.9890339559    0.0318172505
 H   -0.5450313405    1.9062942949   -0.9283316095
 H   -0.6218875272    1.8857269584    0.8443145106
 H   -0.9670536015   -0.4054872524   -0.0402730372
 H    0.1524519546   -0.1322059644    2.1075206759
 H    0.3780852731   -2.5048579160    2.1986093404
 H    0.5650799607   -2.5747361812    0.4255941311
 H    3.9362896852   -1.0290389180    1.5706689932