14

 N    0.0441705860   -1.0943003714    0.2664728111
 C    0.0204380034    0.0501095263    0.1033369991
 C   -0.0235569653    1.4845215936   -0.0361295256
 C   -1.2871214332    2.2385591920    0.4414473959
 N   -0.9595202917    3.6120130387    0.0021740628
 C   -0.0239441141    3.4658177185   -0.8452886067
 C    1.4132352857    3.7448629258   -0.4545333336
 C    1.3449244688    2.1814887119   -0.3158814234
 N    0.2851053328    2.0729343692   -1.3492745946
 H   -2.1804914290    1.7926222691   -0.0158548265
 H   -1.4242846177    2.2551766440    1.5256122844
 H    2.1236788555    3.9718763496   -1.2532264119
 H    1.5439451326    4.3866968561    0.4142413421
 H    2.2294107362    1.5504064366   -0.3806367931