18

 C    0.0509399721    1.3638250054    0.0905815664
 O   -0.0079557422   -0.0351670006   -0.1038861073
 C   -1.2905226981   -0.5724307497   -0.0912230398
 C   -2.1137360102   -0.5919560209    1.2568482008
 N   -2.4348882044   -2.0375280215    1.0876717410
 C   -2.7941071594   -2.3088426692   -0.3909447310
 C   -3.1836052667   -1.1832137009   -1.2740468011
 C   -2.2855546357   -0.1951135167   -1.1678724897
 C   -1.3898492383   -2.1196018097    0.0253670356
 H    1.1080680605    1.6325224023    0.1433473297
 H   -0.4107489714    1.9177495234   -0.7386510030
 H   -0.4392697883    1.6660954346    1.0273795029
 H   -1.4414660113   -0.5133825381    2.1152143812
 H   -2.9677943213    0.0835238526    1.3660453271
 H   -3.2256781043   -3.2965983078   -0.4927940061
 H   -4.0990606301   -1.1663166891   -1.8516092342
 H   -2.3572659731    0.7914294427   -1.6080574279
 H   -0.5794639378   -2.8409926468    0.0185545952