16

 O    0.1921366029    1.2536822521    0.0301776380
 C    0.1269669803   -0.1134622013    0.4079108213
 C   -1.3040055953   -0.5971515580    0.3132753360
 N   -1.7929798768   -0.8808342155   -1.0248345968
 C   -1.7021797907   -2.0173706703   -0.0685491893
 C   -0.6537878843   -3.0618505299   -0.3788176189
 O    0.3138006405   -2.8775076127   -1.0675622009
 C   -2.9140221901   -2.5385084215    0.5060933817
 C   -3.9194587062   -3.0114454613    0.9669080592
 H   -0.0059222869    1.2881880414   -0.9123971018
 H    0.7782641186   -0.7388752965   -0.2094856542
 H    0.4691059079   -0.1637933856    1.4464423454
 H   -1.9900855305   -0.1202539571    1.0110929856
 H   -2.7718272345   -0.6203669004   -1.1209648882
 H   -0.8518239756   -4.0404607213    0.1067493882
 H   -4.8099192693   -3.4177358423    1.3798589246