16

 N    0.0654402700    1.2919658661    0.0915286733
 C    0.0961577537   -0.0547551640    0.0007010183
 O    1.1160037937   -0.7140343561   -0.1369369346
 C   -1.2637127768   -0.7902766219    0.0306691446
 O   -1.0180830826   -2.1618360947    0.0016607359
 C   -2.1054098074   -0.4248729132    1.2880097504
 O   -2.4668428278    0.9659295104    1.2735655397
 C   -3.2931388255   -1.2652420056    1.3889776658
 C   -4.3131506155   -1.8980889589    1.4415954598
 H    0.9453608162    1.7781951935    0.1614154542
 H   -0.7842958123    1.7354119457    0.4121794689
 H   -1.8462319593   -0.4704322805   -0.8499474817
 H   -0.0488368446   -2.2292211198   -0.0858165534
 H   -1.4772045863   -0.5643154519    2.1752247892
 H   -3.3039732092    1.0389109737    0.8014702713
 H   -5.2002838964   -2.4798279127    1.4974922282