14

 O   -0.0597196579    1.3291999138    0.0097810004
 C    1.2173922407    1.8129869018    0.0000546358
 C    2.1480937322    0.8288181777   -0.0140795527
 C    1.4083738469   -0.4076128540   -0.0137799076
 C    0.0567156946   -0.0306801617    0.0012518949
 C   -0.9677540306   -0.9642416257    0.0060001831
 N   -0.6857241928   -2.2657568159   -0.0038099730
 C    0.6058225385   -2.6442028762   -0.0182826653
 C    1.6908362782   -1.7771356745   -0.0239639913
 H    1.2974414417    2.8887195392    0.0050866784
 H    3.2183385968    0.9616470754   -0.0235749039
 H   -2.0127911162   -0.6669831522    0.0176578954
 H    0.7765482955   -3.7175401122   -0.0257552869
 H    2.7061354724   -2.1568954755   -0.0357563073