21

 O    0.0530328077    1.4734366646   -0.1170527476
 C   -0.0080186623    0.0515592740   -0.0275073002
 C    0.7369993411   -0.4975375241    1.1985861418
 C   -0.0002103378   -0.1850242145    2.5120021448
 C   -1.4461031988   -0.7035129213    2.4787006116
 C   -2.2100284510   -0.1458488393    1.2655960466
 C   -1.4542891440   -0.4354387362   -0.0157721439
 C   -2.1521580739   -0.6645014203   -1.2818347096
 O   -1.6186772813   -1.7670754552   -0.5362298256
 H   -0.1398140589    1.8416756867    0.7507615014
 H    0.4669650357   -0.3159673892   -0.9423872068
 H    0.8210071399   -1.5850800551    1.0837183680
 H    1.7534471189   -0.0902835244    1.2108208857
 H    0.5441251198   -0.6235479839    3.3548806027
 H   -0.0040379059    0.9000925996    2.6978229780
 H   -1.4354889177   -1.7986624039    2.4131084161
 H   -1.9684077520   -0.4453464746    3.4059823687
 H   -3.2140534767   -0.5759758527    1.2032201247
 H   -2.3321220412    0.9414356861    1.3682590534
 H   -3.2398059233   -0.6106473340   -1.3158588824
 H   -1.6485738684   -0.4481152524   -2.2231688374