24

 C   -0.0860544908    1.5473146722   -0.0122934038
 C    0.0256504239    0.0392535650    0.0629066804
 C    1.3371140822   -0.6758699603   -0.1996336828
 N    2.5093101201    0.1190700092   -0.4432053858
 C    3.7521738083   -0.6046861958   -0.6887767871
 C    3.0466738171    0.0927034101   -1.7997910985
 C    0.7352776299   -0.6923740541    1.1924484805
 C    1.4069397336    0.0934408414    2.3030268767
 C    0.1187682076   -2.0003949342    1.6548963318
 H    0.8629575351    2.0334224256    0.2179688909
 H   -0.3784234323    1.8601228655   -1.0209980143
 H   -0.8458847848    1.9233208375    0.6820040498
 H   -0.8506680955   -0.4792875062   -0.3212844893
 H    1.2835282256   -1.6138361966   -0.7632888057
 H    4.6468278829   -0.1762240946   -0.2456735904
 H    3.7161307414   -1.6929274874   -0.6818986154
 H    2.5386622203   -0.5295465135   -2.5348406936
 H    3.4167284891    1.0396470746   -2.1827330597
 H    1.9473460546    0.9603203099    1.9223502747
 H    0.6690086732    0.4365264481    3.0379612848
 H    2.1284998137   -0.5379801469    2.8352576292
 H    0.8730344375   -2.6560360163    2.1070333464
 H   -0.6593567840   -1.8240220176    2.4075535366
 H   -0.3423753287   -2.5452290057    0.8246032746