13

 C    0.0894910844    1.4443082066    0.0093657247
 N   -0.0168676807   -0.0109669142    0.0501567305
 N   -0.2129692144   -0.6250307206   -1.1198242134
 N   -0.3195112271   -1.8831338530   -1.2004664311
 C   -0.2320587837   -2.6798135136   -0.0367719115
 O   -0.3237424126   -3.8644974405   -0.0431491979
 O   -0.0273653152   -2.0299841332    1.1802407164
 C    0.0878641862   -0.6761620331    1.2707320921
 N    0.2732457421   -0.0403247729    2.3420313086
 H    1.0600789248    1.7565268053    0.3997741364
 H   -0.0221566111    1.7389005221   -1.0329832468
 H   -0.6932322479    1.8908539110    0.6256682748
 H    0.3260112053   -0.6751070739    3.1369126673