16

 O   -0.0195573286    1.4627671259    0.0100142624
 C    0.0459218168    0.0250434179    0.0025724186
 C    0.7068454602   -0.5128317264   -1.2821913750
 C   -0.0268608028   -0.0330408553   -2.5534906888
 O    0.0820647713    1.3564441162   -2.7634345364
 C    0.5276477754   -0.7172755766   -3.7349814874
 N    0.9588300544   -1.2906033761   -4.6398122129
 C    0.7187137476   -0.4787678314    1.1970298724
 C    1.3140721551   -0.8692874872    2.1649470879
 H    0.8365452220    1.7934237071    0.3076154473
 H   -1.0042577051   -0.2930994899    0.0170579927
 H    1.7511080861   -0.1869634263   -1.3274862595
 H    0.7015169909   -1.6067001274   -1.2453560668
 H   -1.0849894212   -0.3420345554   -2.4789818980
 H   -0.0883972372    1.7651453479   -1.9003265319
 H    1.8236607451   -1.2209587530    3.0287029855