18

 O    0.0459282912    0.0293032674   -0.1671792131
 C   -0.0013765249    1.2231598015   -0.0907361866
 C   -1.2743569303    2.0710684952    0.0783267233
 C   -0.7977858598    3.5168498294    0.0791452992
 C   -1.4994839205    4.5832320927   -0.7216956737
 C   -1.5315619734    4.6275145509    0.7862103983
 C    0.7131412553    3.4545231311    0.0693743445
 C    1.4116931346    2.7355906884    1.1581324541
 N    1.1632670452    2.0667658933   -0.1503767740
 H   -1.9697786518    1.8416966187   -0.7342747210
 H   -1.7644332319    1.7648882407    1.0088862539
 H   -0.8905193991    5.3161583655   -1.2416633173
 H   -2.4079621013    4.3058979227   -1.2462702349
 H   -2.4625861397    4.3823302710    1.2868229627
 H   -0.9428953351    5.3883934911    1.2883688239
 H    1.2510319006    4.2114201488   -0.4952706340
 H    2.4597678797    2.9249378508    1.3666317412
 H    0.8286754211    2.4029190807    2.0137013536