23

 C   -0.1282921742    1.5531048813   -0.0462735127
 C   -0.0126656885    0.0276940142    0.0364175156
 C   -1.4225696843   -0.5750713738    0.0936606996
 O    0.6499952163   -0.4501075224   -1.1713510523
 C    1.8100571772   -1.1827017889   -0.7542023067
 C    2.8680952301   -0.1831933619   -0.2388509465
 C    2.2683874375    0.2341015541    1.1438637601
 C    0.9162228949   -0.5184693577    1.1611417042
 C    1.3423511768   -1.8666483538    0.5362034460
 H    0.8341512964    2.0244542249   -0.2514455903
 H   -0.8082042334    1.8260323276   -0.8590632583
 H   -0.5307826287    1.9685124658    0.8840450741
 H   -1.9457656800   -0.3674609649   -0.8445051959
 H   -1.4042677418   -1.6580699673    0.2334476615
 H   -2.0006198617   -0.1335418504    0.9126351813
 H    2.1272147219   -1.8165858292   -1.5835288027
 H    3.8507070372   -0.6540771562   -0.1351650798
 H    2.9679052155    0.6544666083   -0.9330704687
 H    2.8953602351   -0.1180947500    1.9686959516
 H    2.1655742785    1.3139252372    1.2607655165
 H    0.4305754118   -0.5584142465    2.1377624216
 H    0.5323596172   -2.5786775350    0.3733144920
 H    2.1484029562   -2.3561992254    1.0899874996