18

 C   -0.0257353019   -1.2123906348   -0.2779223320
 C   -0.0148092396   -0.0189709160   -0.1171036154
 C    0.0078500003    1.4059297474    0.0741717585
 C   -0.5088552313    2.3045036763   -1.0961328362
 C    0.8003707798    3.1453724455   -1.0494404451
 C    1.3386860308    2.2792088602    0.1162350913
 C    0.9596492073    2.7814206248    1.5308277132
 C   -0.3578511733    1.9531361441    1.4929667182
 H   -0.0382236822   -2.2643877180   -0.4195312915
 H   -0.6374552613    1.7499870422   -2.0271683744
 H   -1.4390302483    2.8369108552   -0.8792663146
 H    1.3931904394    3.0639933436   -1.9633501281
 H    0.6810101621    4.2075189620   -0.8167325965
 H    2.3262348487    1.8349565951   -0.0080968149
 H    1.6494905244    2.4478939048    2.3094778532
 H    0.8449923996    3.8655034418    1.6212728234
 H   -1.2910972986    2.5219222089    1.5279400204
 H   -0.4033688161    1.1684513265    2.2498850704