16

 O    0.0669616352    1.4684372657    0.2664954521
 C    0.0362231446    0.0700958699    0.0946711953
 C    0.6130692440   -0.5625898382    1.3751923054
 N   -0.5612170346   -0.7635888830    2.2027833418
 C   -1.7610237866   -0.6935283153    1.5594426456
 O   -2.8586095735   -0.8126375362    2.0467353086
 C   -1.4173091427   -0.4790595494    0.0574726489
 C   -2.3427115514    0.3766231024   -0.6579178910
 C   -3.0549699886    1.1328965365   -1.2634560328
 H   -0.5962730111    1.8518300758   -0.3227044974
 H    0.6032195597   -0.2344829442   -0.7948095082
 H    1.1273610498   -1.5077517315    1.1544741112
 H    1.3260921685    0.1257912017    1.8364314519
 H   -0.5257429278   -0.9397322188    3.1937250845
 H   -1.4094162801   -1.4789794078   -0.3983501191
 H   -3.7191262855    1.7751983723   -1.7876583969