21

 C   -0.0787773415    1.4817747499    0.0448618856
 C    1.3559485618    2.1296694023    0.0269774228
 C    1.7219826291    2.8248920379   -1.2555513867
 C    2.4622546127    2.3354557224   -2.2582874696
 C    3.0183004514    0.9785789381   -2.3681368421
 C    2.3254063704   -0.1662174757   -2.3762044347
 C    0.8192860321   -0.2931413396   -2.3120089770
 C    0.3459673130   -0.7996365088   -0.9710752881
 C   -0.0431247226   -0.0274486927    0.0455429927
 H   -0.6161312103    1.8238758151    0.9337296930
 H   -0.6469535058    1.8542840091   -0.8144148632
 H    1.4142860278    2.8646434425    0.8375896456
 H    2.0907505884    1.3515569578    0.2476271504
 H    1.3632926671    3.8491205528   -1.3514718860
 H    2.7171632208    3.0118049240   -3.0750055248
 H    4.0973788168    0.9198589282   -2.5124196241
 H    2.8758202410   -1.1013804821   -2.4627684837
 H    0.3692284867    0.6795653955   -2.5301477737
 H    0.4943814853   -0.9876493638   -3.0978487159
 H    0.3694652341   -1.8782021686   -0.8278974759
 H   -0.3203400684   -0.5129738543    0.9792137654