21

 C    0.0521406128    1.3438018907   -0.0895662346
 O    0.0132509845   -0.0620352474   -0.0513483713
 C   -1.2989126352   -0.5738769743   -0.0059775010
 C   -1.2177239726   -2.0942444466    0.0322649945
 C   -2.5911653091   -2.7472825734    0.0830837590
 O   -2.4171582307   -4.1505960959    0.1157401551
 C   -3.6225586307   -4.8652836769    0.1640939442
 C   -3.2952119738   -6.3483172652    0.1948528874
 O   -4.1281337346   -7.2137333346    0.2384217009
 H    1.1028999430    1.6414646294   -0.1229717099
 H   -0.4589623188    1.7439280440   -0.9799714665
 H   -0.4156906171    1.7911805219    0.8021375773
 H   -1.8301219651   -0.1912251699    0.8839249981
 H   -1.8731073357   -0.2380901705   -0.8880631716
 H   -0.6801295434   -2.4494390170   -0.8529022033
 H   -0.6371171417   -2.4028261635    0.9076876607
 H   -3.1493285615   -2.4149382042    0.9752038444
 H   -3.1927305025   -2.4615659004   -0.7968989365
 H   -4.2190920862   -4.6163151935    1.0588382795
 H   -4.2625916625   -4.6626947709   -0.7121132442
 H   -2.2040311191   -6.5626769017    0.1731566080