17

 N   -0.0430724017    1.2247577057   -0.4310647716
 C    0.0195135677   -0.0097723307   -0.1905230221
 N    1.0918815076   -0.9330525974    0.0523524883
 C    1.6525933992   -0.9371972315    1.4491063807
 C    0.6248970325   -2.0220694284    1.8844284630
 C    0.1076152470   -2.0262808921    0.4201563912
 C   -1.0320508297   -1.0712180001    0.0506827635
 C   -2.4048933667   -0.9337608963    0.5469608937
 O   -2.1277270104   -1.3742030300   -0.7848068972
 H    0.8905239708    1.6399060643   -0.4791372972
 H    2.6935783284   -1.2681760420    1.4592806820
 H    1.5836611707    0.0355150927    1.9444640008
 H    1.0630400351   -2.9643383405    2.2173113957
 H   -0.1083856647   -1.6942980008    2.6250583427
 H    0.1607398408   -2.9596763565   -0.1429710591
 H   -2.8093854508   -1.6910816816    1.2174738915
 H   -2.8349355158    0.0625424051    0.6293401540