18

 C   -0.8347803831   -0.9920033247   -1.0565657335
 C   -0.5165511632    0.0692736115   -0.5882096303
 C   -0.1264921274    1.3406888858   -0.0212408535
 C   -0.0375287035    1.4805824661    1.5277543809
 N    1.2533217323    2.2051534407    1.4018008820
 C    2.3712337359    1.6321283964    2.1705338283
 C    2.9805207595    0.6032612199    1.2402726410
 C    2.4238541787    0.6607435838    0.0314834247
 C    1.3869394747    1.7496131892   -0.0173060839
 H   -1.1195033033   -1.9277044478   -1.4696014035
 H   -0.7290936408    2.1463152305   -0.4503283067
 H   -0.8333351528    2.0564854700    2.0092083087
 H    0.0521462152    0.5049174327    2.0217456848
 H    3.1020986366    2.4056144904    2.4485111564
 H    2.0020852248    1.1993602816    3.1099365381
 H    3.7856464015   -0.0592012984    1.5370695832
 H    2.6885175363    0.0561116540   -0.8269046115
 H    1.6416167785    2.5347675184   -0.7406711052