17

 C   -0.0299349881    1.5097897122   -1.1198098156
 N    0.1378486230    0.2471385514   -0.4150118667
 C    1.1884929006   -0.5999816249   -0.9111509064
 C    1.9263423334   -1.2924677979    0.2345611989
 O    1.7345259715   -1.0261344972    1.3926773531
 C    0.7516358868   -1.7085403459   -1.9013488647
 C   -0.7272963135   -1.9762820433   -2.0396134098
 O    1.6031410999   -2.3334140736   -2.4893436288
 H    0.8911264623    2.1156468756   -1.1793473271
 H   -0.3717097406    1.3302149761   -2.1457044941
 H   -0.7982077654    2.1041705184   -0.6180611112
 H    0.2847599844    0.3905094564    0.5794646237
 H    1.9891648472   -0.0550385066   -1.4486478053
 H    2.6568751305   -2.0563693096   -0.0926748893
 H   -1.2340175154   -1.1007139522   -2.4584769730
 H   -0.8800870181   -2.8408971857   -2.6863817573
 H   -1.1756756283   -2.1385108931   -1.0547721761