22

 C   -0.0616317443    1.5831594895    0.1042350875
 C    0.0303680119    0.0455021207    0.0655685601
 C    0.7082747393   -0.4754349959    1.3475276217
 C   -1.3944586245   -0.5346899432   -0.0127523680
 O   -2.1364663376   -0.1238563248    1.1274303033
 C    0.7696399961   -0.4430465358   -1.2011453246
 C    2.2190948541    0.0050756775   -1.3572612048
 O    2.6954874572   -0.5532929730   -2.5762658004
 H    0.9197119828    2.0440918363    0.2512361838
 H   -0.4799929658    1.9752371173   -0.8301119715
 H   -0.7107340178    1.9023818409    0.9229117741
 H    0.0928579251   -0.2458285954    2.2204607952
 H    0.8429507213   -1.5626076393    1.3066418465
 H    1.6922553054   -0.0214769032    1.4985390616
 H   -1.8765537600   -0.1845496178   -0.9397275251
 H   -1.3345189740   -1.6337850864   -0.0647653066
 H   -3.0206288637   -0.4941080610    1.0603568412
 H    0.7610200088   -1.5403189582   -1.2277306002
 H    0.2249147087   -0.1077489412   -2.0931306319
 H    2.2822382582    1.1033606954   -1.3792910086
 H    2.8232595849   -0.3421988025   -0.5057346080
 H    3.6100401240   -0.2800264098   -2.6920005052