25

 C   -0.5990555853    1.9900077463   -0.2591915672
 O   -0.4717661217    0.5914994640   -0.1780387373
 C    0.2794978434   -0.0060978242   -1.2303419388
 C    1.7860104816    0.1678807632   -1.0105945815
 C   -0.1152457714   -1.4874952368   -1.2766594756
 C   -1.5405752199   -1.7782682232   -1.7254961805
 C   -1.8505110783   -1.4461318545   -3.1740566586
 C   -2.2060393123   -3.0062312676   -1.1431672167
 C   -2.6502888622   -1.6286037975   -0.7138869140
 H    0.3606695471    2.5146940838   -0.1399301763
 H   -1.0434554521    2.3038999933   -1.2171282669
 H   -1.2622895449    2.3012168835    0.5522749966
 H    0.0036851482    0.4781271479   -2.1819505269
 H    2.0937033581   -0.3240196439   -0.0820825418
 H    2.3494999008   -0.2728280821   -1.8392279381
 H    2.0644953630    1.2236571618   -0.9457961846
 H    0.5847667635   -2.0077328442   -1.9443065201
 H    0.0462271798   -1.8981572063   -0.2724900395
 H   -1.1769713520   -1.9787970789   -3.8569461925
 H   -2.8755059521   -1.7316028516   -3.4306079564
 H   -1.7510014601   -0.3742857654   -3.3798023184
 H   -2.8649920288   -3.5812612159   -1.7856455956
 H   -1.6451670533   -3.6079843801   -0.4351539679
 H   -2.3837095139   -1.2842998510    0.2776001785
 H   -3.6139856175   -1.2722909406   -1.0635484197