15

 C    0.1644251071    1.6261782267   -0.0308551354
 C    0.0463755734    0.1006429003   -0.0117822762
 C    0.7111076914   -0.6085804464   -1.1799428264
 O    2.1316740152   -0.5135980375   -1.1247031966
 C    1.5231117442   -1.7673109424   -0.7431711594
 C    1.4474473838   -1.8459512415    0.7528770194
 O    1.8090569926   -2.7318970649    1.4765353132
 C    0.7195206076   -0.5396590756    1.2102881754
 O    0.6758378349   -0.1492620887    2.3431190720
 H    1.2082777889    1.9236200198   -0.1621695901
 H   -0.4249585910    2.0572675314   -0.8449322931
 H   -0.1933886687    2.0357904802    0.9167268154
 H   -1.0141571217   -0.1901966149    0.0285267927
 H    0.2771698467   -0.5802717368   -2.1761564477
 H    1.7488813556   -2.6304514598   -1.3597837432