23

 C    0.0095030237    1.6417318409   -0.1719371906
 C    0.0221672650    0.1589294031    0.2177246503
 C   -1.3563055672   -0.4853112624    0.1421490952
 C   -1.9583635557   -0.8681126417   -1.2300522162
 C   -1.1203541880   -2.1916965927   -1.3331600421
 C   -2.3767818686   -3.0393775869   -1.6361517721
 C   -2.3924863094   -4.5180439265   -1.2789276427
 C   -2.8478978962   -1.9939661443   -0.6008709944
 C   -1.4906069541   -2.0236057878    0.1872723888
 H    1.0071279222    2.0849813742   -0.0931615970
 H   -0.3348619292    1.7777969368   -1.2028404130
 H   -0.6616167296    2.2150179147    0.4775504654
 H    0.7215233256   -0.3851300400   -0.4293697722
 H    0.4092958692    0.0546064686    1.2403212742
 H   -2.0612935763    0.0410950614    0.8013308236
 H   -2.2447978035   -0.2294399673   -2.0684590570
 H   -0.1165913098   -2.2941870110   -1.7491970811
 H   -2.7852925304   -2.8793669158   -2.6429720308
 H   -1.9856270845   -4.6982442066   -0.2783431536
 H   -3.4124703647   -4.9182432564   -1.3006049001
 H   -1.7965068888   -5.1012426188   -1.9900971935
 H   -3.8372834477   -1.8513568659   -0.1603306195
 H   -1.2254569822   -2.7027286356    0.9994342383