17

 O   -0.0393716003    1.3728897132   -0.0242061190
 C   -0.0032885404   -0.0212654261    0.0095563096
 C    1.0899728299   -0.5854685900    0.7500161410
 C    1.9915629210   -1.0879172023    1.3674829430
 C   -1.3372274312   -0.7903347988    0.0129309303
 C   -2.5785379132    0.0461198484   -0.2865802298
 C   -2.4889576354    0.2616338931   -1.8118624461
 O   -1.0979256125    0.1097311772   -2.1640762613
 C   -0.5011252407   -0.7531488551   -1.2320167460
 H   -0.1362907322    1.6101983858   -0.9581491800
 H    2.7939376314   -1.5172327895    1.9144652550
 H   -1.4077747135   -1.6815036550    0.6232288183
 H   -3.4920257492   -0.4825659279   -0.0056578598
 H   -2.5466926196    0.9971959287    0.2509701710
 H   -3.0792578140   -0.4888448794   -2.3548913009
 H   -2.8021775869    1.2562654924   -2.1383918817
 H    0.0399912168   -1.5933696646   -1.6528524934