18

 O    0.0099229589    0.1303695743    0.6999473999
 C   -0.0126267939    1.1998053527    0.1403217512
 C   -1.3344441435    1.8957727752   -0.2147833892
 C   -1.1212432236    3.2385012043   -0.9182266679
 C   -0.0691670842    3.0799769475   -2.0527719437
 C    1.0094265120    3.2678489620   -0.9479973172
 C   -0.0562958224    4.0738185762   -0.1518500825
 C    1.2790886801    1.9317713933   -0.2513010931
 H   -1.9125148788    1.2018772339   -0.8378457159
 H   -1.9022365786    2.0145170878    0.7165407886
 H   -2.0724322434    3.7173739796   -1.1621490986
 H   -0.0643024373    2.1461958932   -2.6251337492
 H   -0.0904872536    3.9246361044   -2.7459967807
 H    1.9398827798    3.7726396487   -1.2182108996
 H   -0.0749389042    5.1252134660   -0.4496497910
 H   -0.0401526412    4.0108908616    0.9414691293
 H    1.8691901067    2.0664643086    0.6638443756
 H    1.8584176072    1.2538178005   -0.8905353560