20

 C   -0.1665588975    1.6143887801   -0.0470990145
 C    0.0302322392    0.1054498493   -0.0169387408
 C    1.1776980211   -0.6043059730   -0.8113139204
 C    2.4480328987    0.0567464527   -0.2464518883
 C    2.0831720940    0.0393700742    1.2800390781
 C    0.6980903839   -0.6270518626    1.1950947276
 C    1.0016487658   -1.7902540736    0.1938144027
 O   -0.0064143771   -2.7377024878   -0.0578967787
 H    0.7483915871    2.1677806603    0.1797233277
 H   -0.5115602869    1.9395404345   -1.0350852080
 H   -0.9254115427    1.9199794569    0.6820109541
 H   -0.9330075887   -0.3619074491   -0.2525010051
 H    1.1221068187   -0.7621596190   -1.8896955234
 H    3.3445607372   -0.5292664299   -0.4682746099
 H    2.6111524393    1.0661821447   -0.6326454522
 H    2.7854487446   -0.5560199329    1.8705472374
 H    2.0490204376    1.0393712296    1.7199753092
 H    0.1617036719   -0.8077333257    2.1281320800
 H    1.9004176126   -2.3788260836    0.4019812140
 H   -0.8317292590   -2.2818590451   -0.2494379294