17

 C   -0.6200654175    1.4407396512    0.6753508842
 N    0.1044873012    0.2977754046    0.1235659940
 C   -0.7671686137   -0.7255058777   -0.4593928015
 C   -0.9885479755   -1.7966660818    0.6215856607
 O   -1.7927817672   -2.6869335196    0.5944401309
 C    0.0188005326   -1.5114119159    1.7445305762
 C    0.9183227671   -0.4036371374    1.1418592506
 C    2.1234373587   -0.9745926501    0.5143108586
 N    3.0640488822   -1.4405090000    0.0318663628
 H    0.0951743291    2.1659569954    1.0736542886
 H   -1.1757953289    1.9302298808   -0.1283880612
 H   -1.3365146864    1.1854457759    1.4768523245
 H   -1.7144172104   -0.3102054134   -0.8085817543
 H   -0.2799807765   -1.2073826223   -1.3184216643
 H   -0.5247575781   -1.1327987626    2.6162938310
 H    0.5443443773   -2.4188297666    2.0452969667
 H    1.2496280559    0.3133550095    1.8969075426