18

 C    0.0195041153    1.4711016002   -0.0563695499
 C    1.2729417956    0.6960912013   -0.0041429977
 N   -0.0758074415    0.0011687368    0.0437342211
 C    0.2826300024   -0.6338224021   -1.2958291821
 C    0.6799461224    0.2374135737   -2.4455329968
 C    1.6715528445    0.0004269307   -1.3252580906
 C    2.6102668672   -1.1492076840   -1.4219904623
 C    1.9460598648   -2.3130832763   -1.4718682809
 C    0.4339089693   -2.1436116446   -1.3508729039
 H   -0.2920486501    1.9511708607    0.8674393643
 H   -0.3057606232    1.9937109420   -0.9484390165
 H    1.9248270474    0.7004236879    0.8633156308
 H    0.9066218976   -0.3055162425   -3.3567735634
 H    0.2428670253    1.2126363213   -2.6254453793
 H    3.6901045158   -1.0519709020   -1.4664551167
 H    2.4091920060   -3.2853570174   -1.6142641998
 H    0.0472289511   -2.5983650091   -0.4308948786
 H   -0.1043173200   -2.6094645966   -2.1857223776