25

 C    0.0684077210    1.5569669859    0.0463462683
 C   -0.0057543745    0.0216221384    0.0649972487
 C    0.6400851725   -0.5035274255    1.3566889213
 C   -1.4542919978   -0.4978012753   -0.1341393680
 C   -2.0868776423    0.0158088434   -1.4407141560
 C   -1.5186064829   -2.0202854425   -0.1206383076
 C   -1.7614544258   -2.8125766116    1.1512983605
 C   -2.8237239121   -2.7362706302    0.0851731298
 O   -3.9557064466   -1.9386564298    0.2974892253
 H    1.0929869193    1.8935844425    0.2365796761
 H   -0.2425166197    1.9810640154   -0.9112691216
 H   -0.5697615919    1.9885362503    0.8274186691
 H    0.5909247298   -0.3515448182   -0.7818280498
 H    0.0688037969   -0.1850916116    2.2373966152
 H    0.6999175837   -1.5937432323    1.3758005213
 H    1.6560974153   -0.1091963434    1.4651758438
 H   -2.0642544414   -0.1279958163    0.7004165624
 H   -3.0947575048   -0.3899543062   -1.5524715624
 H   -2.1621823474    1.1058995001   -1.4609193661
 H   -1.4947735236   -0.2938610527   -2.3110674481
 H   -0.8557040353   -2.4895683043   -0.8458805854
 H   -1.2340603226   -3.7478600417    1.3080246275
 H   -1.9456945693   -2.2391834269    2.0542012763
 H   -3.0085631553   -3.6293016538   -0.5121182568
 H   -4.5088472251   -2.3755912337    0.9529645761