20

 O    0.0489893422   -0.0087198627    0.0684706923
 C   -0.0209762105    1.1993498749    0.0455864623
 C   -1.3601894476    1.9263111900    0.0432867360
 C   -1.4873659858    2.9162419330   -1.1422417390
 C   -1.1767975805    2.2461197056   -2.4552604688
 C    0.0401161016    2.1460040216   -2.9945984041
 C    1.3233474440    2.7184832895   -2.4182388021
 N    1.9565422181    1.9743553970   -1.3168841135
 C    1.2746980646    2.0325683507   -0.0222277722
 H   -2.1441529465    1.1645680286    0.0067825668
 H   -1.4664785263    2.4770323380    0.9883426158
 H   -2.5043324921    3.3213765402   -1.1484723646
 H   -0.8158368289    3.7658049962   -0.9789085616
 H   -2.0098195634    1.7498192618   -2.9492575755
 H    0.1475748312    1.5814937987   -3.9186816552
 H    2.0669855739    2.7935299445   -3.2187843710
 H    1.1594766026    3.7409630322   -2.0570299894
 H    2.0723852723    0.9987070226   -1.5766225907
 H    1.0964248623    3.0835423280    0.2287990866
 H    1.9502222388    1.6164154595    0.7333749979