13

 C    0.0556278304    1.3312069548    0.0073530939
 O    0.0053684384   -0.0913631719    0.0029714856
 C   -1.2212459211   -0.6235497705    0.0105324199
 C   -2.4687033991   -0.0738612739    0.0221207963
 O   -3.3915466036   -1.0632856650    0.0257408887
 N   -2.7763684752   -2.2834406228    0.0166425018
 C   -1.4799467484   -2.0306164610    0.0074992248
 C   -0.5199268925   -3.0794279129   -0.0036558377
 N    0.2886358487   -3.9056392956   -0.0128500817
 H    1.1110875579    1.6017885205    0.0000318764
 H   -0.4370615580    1.7409586055   -0.8832437003
 H   -0.4230846181    1.7349543799    0.9082562010
 H   -2.8491229294    0.9327440029    0.0286549611