15

 C    0.1136033512    1.5177235980    0.0154730531
 C   -0.0668314385    0.0439864406    0.0413104844
 C   -1.1182982291   -0.8178790661   -0.0250235829
 N   -2.4911367220   -0.9666912348   -0.1390759174
 C   -2.7242303133   -2.3329708378   -0.1207478349
 N   -1.6624185991   -3.0792584777   -0.0083549862
 C   -0.6187282521   -2.1593783483    0.0556763136
 C    0.7366137545   -2.0538392045    0.1694191189
 O    1.0665554575   -0.7281378419    0.1605943273
 H    0.7383871720    1.8385341509   -0.8266190603
 H   -0.8578673259    2.0094258187   -0.0824263136
 H    0.5861189048    1.8880684092    0.9330647396
 H   -3.1908835022   -0.2510839953   -0.2193396808
 H   -3.7351678751   -2.7119534430   -0.1971555674
 H    1.5559340173   -2.7449096878    0.2593789364