18

 C   -0.1443035162    1.5255551047    0.0255624936
 C    0.0333359218    0.0100825368   -0.0006435046
 N    0.8547502473   -0.3702766906   -1.1480269297
 C    0.7859061436   -0.5116793526    1.2932400281
 N    2.1640546508   -0.0204864259    1.4103445531
 C    0.0203227291   -0.1774886469    2.4980941996
 C   -0.6155465014    0.1209950219    3.4715529262
 C    0.8402462013   -1.9930415292    1.1701034022
 N    0.8582775189   -3.1360919233    1.0035204348
 H    0.8254842405    2.0314535144    0.0077497391
 H   -0.7087884543    1.8490995317   -0.8547890154
 H   -0.6941944341    1.8412366854    0.9143480879
 H   -0.9598803075   -0.4645764394    0.0054884985
 H    0.7730725040   -1.3641164345   -1.3399223946
 H    0.5534895123    0.1257554798   -1.9791386896
 H    2.5448647829    0.0147924897    0.4654839280
 H    2.1476530167    0.9237194737    1.7813360288
 H   -1.1722741756    0.3709779244    4.3414376939