15

 O    0.0578170377    0.0460157868    0.3150430474
 C   -0.0400372472    1.2070599569    0.0561221190
 C   -1.1191091607    2.2386516640   -0.1199413164
 C   -0.0296193801    3.2146152359   -0.6172350355
 C   -0.3941511845    4.1721386970    0.5210911783
 C    0.1355464396    3.4638604003    1.6910601821
 C    1.3517065252    2.6366963787    1.2846425867
 N    0.9957003196    2.2199869760   -0.0891311266
 N   -1.2331498695    3.1033121168    1.1773359315
 H   -2.1112346565    2.0637509351   -0.5317959270
 H    0.1290017038    3.5319386485   -1.6438462982
 H   -0.7040168759    5.2075762003    0.4555533331
 H    0.0817229257    3.9130850797    2.6770555935
 H    2.2590832910    3.2512502328    1.3106394421
 H    1.5186276217    1.7440597812    1.8924142900