18

 C   -0.0887797792    1.5215886603    0.0405729216
 C    0.0307421363    0.0290212246    0.0089070103
 C   -0.0348445816   -0.8492300899   -1.2285324843
 C    1.0369732881   -1.9227865071   -1.1998355808
 C    1.1014942568   -2.1374847483    0.3009261522
 C   -0.2604366552   -1.9155428559    0.9341254733
 C    0.8061943090   -0.8446934777    1.0368836519
 C   -1.0294453422   -1.0520840137   -0.0946831496
 H    0.8774073709    2.0052141075   -0.1506980507
 H   -0.7922680959    1.8749201703   -0.7208085433
 H   -0.4488377763    1.8755809885    1.0137767941
 H   -0.3834501134   -0.4140148060   -2.1584746883
 H    0.7373991888   -2.8287102560   -1.7394524423
 H    1.9903529292   -1.5724482397   -1.6123995965
 H    1.7787361095   -2.8560029807    0.7480500171
 H   -0.6872956947   -2.5409660815    1.7058341708
 H    1.3493195269   -0.4878128630    1.9018703132
 H   -2.1025432272   -0.9617196619   -0.1978988289