23

 C    0.2503670446    1.6131109927   -0.0931195205
 C   -0.1197221662    0.1293362285    0.0843686633
 C    0.6162920413   -0.5418622191    1.2210222670
 C   -0.0230469966   -0.9435172698    2.3231524041
 C    0.5932291165   -1.5897437063    3.5427830074
 C    1.5050155772   -2.7960995181    3.2639071417
 C    2.7984499934   -2.4522848112    2.5247366180
 O    2.6094556244   -2.0268020863    1.1898403225
 C    2.1194065885   -0.7058716313    1.0395402379
 H    1.3190891787    1.7448084007   -0.2932709028
 H   -0.2977022845    2.0533950263   -0.9321009976
 H    0.0083023703    2.1832723631    0.8094032086
 H   -1.1992022824    0.0461931432    0.2505605028
 H    0.0963274597   -0.4034103091   -0.8525710175
 H   -1.0997119026   -0.7868158078    2.3665622749
 H    1.1693408504   -0.8386685174    4.1062993757
 H   -0.2105308441   -1.9064970498    4.2155422371
 H    1.7804717097   -3.2625862113    4.2189347828
 H    0.9573904847   -3.5469264217    2.6831308404
 H    3.3573734670   -1.6844749084    3.0891019752
 H    3.4353161301   -3.3413124454    2.4619854377
 H    2.3966308936   -0.4114783942    0.0221183533
 H    2.6579757062   -0.0303453672    1.7277001578