16

 O    0.0540742809    0.0156556260   -0.3520209968
 C    0.0698067303    1.2002861735   -0.0952432531
 N    1.1866669869    1.8928639508    0.2563232218
 C    2.5958729534    1.5089722346    0.0633311707
 C    2.9485275629    2.9974095313   -0.0749936601
 C    2.1268189128    3.6424417342   -1.1534129824
 C    1.4613004688    3.3289542456    0.1719678265
 C    0.8298279330    4.2836700665    1.0154950606
 C    0.2837019090    5.0926616339    1.7187432442
 H   -0.8335954735    1.8422952584   -0.0786729087
 H    3.0175258030    1.0341289184    0.9534171991
 H    2.7701073878    0.8735317848   -0.8100416833
 H    3.8034876480    3.4795407040    0.3764058361
 H    2.3285793707    4.6947591829   -1.3218049753
 H    1.8301379323    3.0803327743   -2.0349457257
 H   -0.1959626663    5.8025917909    2.3463823164