14

 O    0.1416936232    1.4215112356   -0.0952906808
 C    0.0888916486    0.0372574291   -0.0509928930
 C    0.0274292969   -0.6717106412    1.3396302206
 N   -1.3691090920   -0.0819616541    1.4595882241
 C   -1.3059973359   -0.6634209733    0.0526782906
 C   -0.5978783786   -1.9087211997    0.6237781004
 O    0.1406299109   -2.6850684870   -0.2801370049
 H   -0.4974530023    1.7206250556    0.5682759699
 H    0.7853170730   -0.3733317936   -0.7777827419
 H    0.7382917437   -0.6305333634    2.1670807389
 H   -1.9550737292   -0.6705988370    2.0602168631
 H   -2.1556292902   -0.6119027857   -0.6292281090
 H   -1.2353102732   -2.5182086074    1.2803443592
 H    0.6623559050   -3.3222192977    0.2179381326