23

 C   -0.2230919638    1.5110244652    0.0140397194
 C   -0.0329492223   -0.0080332592    0.0023517243
 C    0.7288456828   -0.5296927870    1.2257078942
 C    0.9272015983   -2.0495605923    1.2191281002
 C    1.6759423909   -2.5737076445    2.4390782139
 C    0.9392138438   -2.5276215661    3.8189184706
 C    1.3311130944   -4.0000809144    4.0199610133
 O    1.3217341961   -4.7397698691    4.9603041991
 C    1.8304790398   -4.1233040523    2.5719110153
 H    0.7413441948    2.0308650760    0.0302191547
 H   -0.7699186434    1.8524773559   -0.8703597605
 H   -0.7853209328    1.8329464902    0.8977359928
 H   -1.0133013076   -0.5001156164   -0.0497467031
 H    0.5021256973   -0.3042549316   -0.9096821207
 H    1.7096742944   -0.0366857930    1.2800153767
 H    0.1928833490   -0.2349807308    2.1386500950
 H   -0.0520424475   -2.5467337358    1.1589407163
 H    1.4715565071   -2.3418206740    0.3106672106
 H    2.6528012455   -2.0848937435    2.5140269763
 H    1.2946576112   -1.8283481224    4.5798672293
 H   -0.1472571541   -2.4113862940    3.7237861983
 H    1.1220127076   -4.6804320002    1.9472695408
 H    2.8235883785   -4.5608310506    2.4410558930