16

 N    0.0977876338   -1.1684189983    0.0687600942
 C    0.0549094734   -0.0138371493    0.0470838257
 C   -0.0027680608    1.4496133203    0.0205586392
 C   -0.8209952042    1.9950819855    1.2224967596
 C   -0.7348447124    3.4952761045    1.3163969892
 C    0.3586363435    4.1652502660    0.9495714748
 C    1.5467678576    3.4526907381    0.4198079899
 O    2.0379706384    2.3260285958    1.1917331807
 C    1.3948313338    2.0617528386   -0.0410304298
 H   -0.5105444832    1.7379528670   -0.9103328099
 H   -1.8595289132    1.6669841599    1.1259269795
 H   -0.4305835837    1.5425221495    2.1405382751
 H   -1.5932997399    4.0225579668    1.7210975071
 H    0.4116209946    5.2459715622    1.0294278530
 H    2.3415457614    4.0568143660   -0.0111646001
 H    2.0382469209    1.6799431075   -0.8332532582