14

 C   -0.0292242584    1.4899301736    0.0195031274
 C   -0.0119432576   -0.0018931264   -0.0290378421
 N   -0.0335776532   -0.7186839498   -1.1172189959
 C   -0.0054251266   -2.0474319927   -0.7070433416
 C    0.0337843615   -2.1377946334    0.6454427052
 N    0.0300187241   -0.8199075440    1.1027034590
 C    0.0626322276   -0.4252928960    2.4384234363
 O    0.0980765105   -1.1938974155    3.3620706654
 H    0.8647428980    1.8994127635    0.5025780557
 H   -0.0628901059    1.8538308069   -1.0079631708
 H   -0.9043435191    1.8772933430    0.5527234735
 H   -0.0156400177   -2.8503878257   -1.4277012795
 H    0.0636436608   -2.9577609949    1.3410869275
 H    0.0519515661    0.6715230614    2.5507241001