18

 C   -0.7942019993    1.0606213384   -0.1236043449
 O   -0.9438443543   -0.2738687511   -0.5570743145
 C    0.0362433085   -0.6735625414   -1.4534789279
 C    1.3877030414   -1.2514338529   -0.9158276372
 O    0.6323800239   -2.4032472115   -0.3778717464
 C    0.0916854839   -2.1882017129   -1.7396782289
 C    1.5597179618   -2.0464314956   -2.2431304026
 C    1.9625909953   -1.4295159281   -3.5741134964
 H    0.1344784543    1.2051192026    0.4477803937
 H   -0.7930942693    1.7660178881   -0.9697674311
 H   -1.6443204603    1.2868952496    0.5235526646
 H    0.0966995704    0.0119866903   -2.3089399975
 H    2.1452090776   -0.8012424474   -0.2728510851
 H   -0.7047887952   -2.8525157055   -2.0767332771
 H    2.1029127931   -2.9735900238   -2.0467806576
 H    1.4415385074   -0.4975734293   -3.8047552829
 H    3.0373600029   -1.2183117585   -3.5811990837
 H    1.7639130379   -2.1310499111   -4.3914255146