18

 C   -0.4747228385    1.4480806819   -0.1471095201
 C   -0.0570877168   -0.0255107363   -0.0233905569
 O   -1.1764738432   -0.9071608164    0.0822491817
 C   -1.7594863991   -0.9513154913    1.3493152573
 C   -2.9738218252   -0.1095737885    1.6609703393
 C   -3.0999323230   -1.6030663151    1.4307348349
 C    0.7310199211   -0.4507424114   -1.1805670104
 C    1.3935605958   -0.7624698899   -2.1325635096
 H    0.4106283732    2.0802947415   -0.2576938552
 H   -1.1119730797    1.5821113448   -1.0248267540
 H   -1.0216485477    1.7643495408    0.7438375544
 H    0.5677501629   -0.1387200371    0.8782098261
 H   -1.0492927744   -1.1357201459    2.1567890846
 H   -3.0959088846    0.2801785253    2.6660335997
 H   -3.3383049245    0.5372750552    0.8716194378
 H   -3.5353351922   -1.9207803718    0.4902867342
 H   -3.3102571684   -2.2520644893    2.2730932102
 H    1.9771395244   -1.0517201566   -2.9713319141