23

 C   -0.5178232502    1.5357779582    0.0132716759
 C   -0.0120967604    0.0957547820    0.0315660673
 C   -1.1456643223   -0.8741646697   -0.3107873710
 C    1.2755395841   -0.1845794230   -0.8241280490
 C    2.0061144436   -0.6993966369    0.4391182468
 C    2.7803432650   -1.9906248848    0.3957470911
 O    2.7480951833    0.3713257179    1.0865006704
 C    1.6691318208    0.6220312822    2.0148831725
 C    0.7510216035   -0.3862576493    1.3146090423
 H    0.2868411343    2.2558062698    0.1869918461
 H   -0.9605580722    1.7717373568   -0.9613833908
 H   -1.2895733105    1.6981393284    0.7750519211
 H   -1.5349759473   -0.6805758608   -1.3169623736
 H   -0.8062747830   -1.9155505377   -0.2804129650
 H   -1.9766035261   -0.7749136615    0.3975612005
 H    1.1293827145   -0.9328221832   -1.6092300438
 H    1.7554885723    0.6968651605   -1.2556620655
 H    3.6760370064   -1.8702789148   -0.2246443192
 H    3.1007825028   -2.2895151315    1.3984719847
 H    2.1757785736   -2.7958355655   -0.0341928790
 H    1.9479303508    0.3293254788    3.0362953040
 H    1.3622119355    1.6741431348    2.0271357125
 H    0.2372496116   -1.1180926507    1.9396984417