17

 O   -0.0662026768    1.2958457557    0.0030449069
 N    0.0129684876   -0.0995558136    0.1223148332
 C   -1.1314886193   -0.6339616137    0.0531355497
 C   -2.5482963094   -0.1775498648   -0.2277192387
 C   -2.8885455189   -1.6678359410   -0.5486976628
 C   -1.5031516399   -2.1058165186    0.0358391690
 C   -0.6518632479   -3.0683294996   -0.8045324573
 C    0.6113058173   -3.4341839848   -0.1659977226
 N    1.5986030988   -3.7446155093    0.3474435779
 H    0.8591788041    1.5577023701    0.0635619187
 H   -3.0574383146    0.2087891697    0.6607344745
 H   -2.6623864609    0.5519073371   -1.0326458666
 H   -3.7680825635   -2.0885090865   -0.0596229349
 H   -2.9583798754   -1.8538546677   -1.6235595678
 H   -1.6101339935   -2.5034283632    1.0509819595
 H   -1.2187012573   -3.9885821516   -0.9904346363
 H   -0.4361405604   -2.6192693782   -1.7803234423