20

 C    0.1824233211    1.3949297866   -0.1503501734
 C   -0.0153278128   -0.0828557114    0.0718072850
 N   -0.1879921703   -0.7084563330    1.1629047240
 O    0.0115241139   -0.7364486795   -1.1094913984
 C   -0.1555528544   -2.1596859320   -1.0631725949
 C   -0.0893417902   -2.6640369605   -2.4882585591
 C    1.3038943612   -2.6496320159   -3.1544467581
 O    1.3495339601   -4.0918123882   -3.1977947481
 C    0.0251102711   -4.1975735745   -2.6396206950
 H    1.1429082756    1.5767165984   -0.6422244194
 H   -0.5975502199    1.7845332240   -0.8115553176
 H    0.1558925753    1.9396663709    0.7945348686
 H   -0.1811990240   -0.0640134100    1.9499635041
 H    0.6343023030   -2.5994875455   -0.4430501163
 H   -1.1130729375   -2.4010496876   -0.5880759549
 H   -0.8792386988   -2.2036904722   -3.0855699837
 H    1.3451263789   -2.2080521060   -4.1576725211
 H    2.1131500919   -2.2272811727   -2.5459111071
 H    0.0161308288   -4.7708929531   -1.7030143064
 H   -0.6829703530   -4.6560429777   -3.3410722384