17

 C    0.0831520963    1.6543096157    0.0800653083
 C    0.0200193067    0.1421609486   -0.0871390263
 C    0.7252673021   -0.4995918426   -1.2995555611
 O    2.1081904330   -0.1669828690   -1.1885189773
 C    1.6398971962   -1.3251122955   -0.4640847857
 C    2.3290955903   -2.6490849789   -0.6111938861
 O    1.6079444706   -3.6610424709    0.0672032873
 C    0.9493777876   -0.7723433312    0.7765026334
 O    0.9678943183   -1.0877552526    1.9326433298
 H    1.0950262171    2.0180999870   -0.1137793594
 H   -0.6049624818    2.1563205735   -0.6074221516
 H   -0.1949875398    1.9351562263    1.1001662036
 H   -1.0043386871   -0.2333645892    0.0304541329
 H    0.3326183492   -0.7313226972   -2.2823750522
 H    2.3811163944   -2.9356549036   -1.6659205397
 H    3.3631845520   -2.5608329542   -0.2438659175
 H    1.5913258748   -3.4269405763    1.0029543116