19

 C    0.0026717554    1.5630774927   -0.1637012706
 C   -0.0049727227    0.0552325432   -0.0414464341
 C    1.1814407502   -0.7076148645   -0.4685582952
 O    0.9327037070   -0.4715702099    0.9189059432
 C   -1.3299961021   -0.6261748792   -0.0281614422
 C   -2.5909171096   -0.1335590440   -0.7192694025
 C   -2.6052010728   -0.3732050761    0.7575007521
 O   -2.7975960020   -1.7537333104    1.0523281335
 C   -1.5496505957   -2.0834489765    0.3815951844
 H    1.0220784547    1.9376446233   -0.0477358130
 H   -0.3780775380    1.8853687630   -1.1376519923
 H   -0.6173940219    2.0208841475    0.6145362095
 H    1.0748457319   -1.7422611196   -0.7936183839
 H    2.0385290264   -0.1819269406   -0.8887741876
 H   -2.5735549956    0.9083333821   -1.0219754079
 H   -3.1506080263   -0.7947230058   -1.3760205399
 H   -2.8732280708    0.3549089000    1.5146247884
 H   -1.6897364596   -2.8242559875   -0.4145680336
 H   -0.8048018585   -2.4302550377    1.1037535317