23

 C   -0.2343451446    1.3498604872   -0.0082891201
 O   -0.0375290031   -0.0415194370   -0.0295546672
 C    0.6555701154   -0.5129531928    1.1097012149
 C    0.7786167953   -2.0270574367    0.9807962928
 C    1.4269931057   -2.7147609085    2.1894989852
 C    2.8784003554   -2.2606282868    2.4262579802
 O    0.6242465205   -2.3989015429    3.3273009052
 C    1.3800841964   -4.2380676259    1.9873134247
 O    1.8041526287   -4.8330264476    3.2128331919
 H    0.7206011837    1.9003414344    0.0117751662
 H   -0.7759315308    1.6199555659   -0.9185867801
 H   -0.8267942011    1.6674306101    0.8649179694
 H    1.6470999322   -0.0348308538    1.1699603330
 H    0.1108846413   -0.2575154535    2.0307667655
 H   -0.2307731229   -2.4310227120    0.8466061024
 H    1.3475330079   -2.2635677179    0.0742187772
 H    2.9059598935   -1.2110632492    2.7268701189
 H    3.3303745789   -2.8574703535    3.2226529910
 H    3.4859629625   -2.3817461819    1.5229125147
 H    0.8598242985   -3.0520296370    3.9986960325
 H    0.3494695018   -4.5330397749    1.7482799943
 H    2.0332273529   -4.5379639526    1.1545369855
 H    1.5498549517   -5.7593452433    3.2099572922