17

 C    0.5625253267    1.4175320710    0.0975975116
 C    0.0969435805    0.0065882664   -0.0838307690
 C   -0.0033274866   -0.6350088108   -1.2469414966
 C   -0.4596912106   -2.0636223040   -1.2809493199
 O    0.0014543774   -2.8327507823   -0.1445038457
 C    0.1423716293   -2.2249534851    1.0349532000
 O    0.6259694631   -2.7941914597    1.9825190866
 C   -0.3315527252   -0.7731835279    1.1482043559
 O    0.1356316318   -0.2216664627    2.3466755309
 H    1.4226513614    1.4537837455    0.7726464057
 H    0.8360709692    1.8679140296   -0.8595629030
 H   -0.2178091658    2.0292977864    0.5653796119
 H    0.2340538706   -0.1592800627   -2.1928098114
 H   -1.5559448528   -2.1448925755   -1.3161812517
 H   -0.0641539170   -2.5943452706   -2.1497117452
 H   -1.4394367939   -0.8102685765    1.1557344852
 H    0.4986394118   -0.9726687111    2.8442296145