18

 C   -0.0213243257    1.5182391043    0.0338035831
 C   -0.0078244306    0.0217574899    0.0091246934
 C   -0.0246163902   -0.7791290528   -1.0768356704
 C   -0.0023555881   -2.2575698855   -0.7152480871
 C    0.0308127901   -2.1961503972    0.7876436014
 C    0.0635930086   -2.9735191438    1.9134665997
 N    0.0792826574   -2.1106110259    2.9937323541
 C    0.0572218823   -0.7964649655    2.5733483267
 C    0.0269401847   -0.8291519524    1.1990085235
 H    0.8677561135    1.9132030182    0.5407916344
 H   -0.0505683849    1.9359656146   -0.9760875010
 H   -0.8911067256    1.8966083312    0.5849557235
 H   -0.0510818428   -0.4317573387   -2.1031919925
 H   -0.8840069586   -2.7828453313   -1.1077285824
 H    0.8707502521   -2.7659773995   -1.1470735851
 H    0.0773162621   -4.0410319436    2.0656917118
 H    0.1034762096   -2.4019276032    3.9549122114
 H    0.0654061762    0.0113858913    3.2870067754