19

 O   -0.0913921228    1.3587346235   -0.0208401861
 C   -0.0161846785   -0.0469783158    0.1615283514
 C   -1.3818809946   -0.6284114542   -0.1985718072
 C   -1.4192905783   -2.1131160759   -0.0646789926
 O   -0.5836883246   -2.9108400140   -0.9164546229
 C   -1.3596275811   -4.0573036954   -0.4694802171
 C   -0.9174578564   -4.2454315845    1.0046266767
 C   -1.6245484350   -2.9117599410    1.2437050797
 C   -2.5208273583   -3.1134851225    0.0197434963
 H    0.7827578214    1.7281825698    0.1328466528
 H    0.7524199077   -0.4994456540   -0.4817734083
 H    0.2316368819   -0.3054384871    1.2032384530
 H   -2.1446985717   -0.1875333197    0.4532376229
 H   -1.6282108378   -0.3401572446   -1.2267213444
 H   -1.3983527440   -4.8671568872   -1.1947653393
 H   -1.4484932257   -5.0716984743    1.4846541854
 H    0.1600097662   -4.3225225727    1.1822922715
 H   -1.8770489956   -2.4332057732    2.1816828906
 H   -3.5905915528   -3.0714239271   -0.1317051123