18

 C   -0.0228471996    1.5192098345   -0.0382324540
 C    1.5092556171    1.5767965340    0.0687454657
 N    2.1649833824    0.8341655697   -1.0041700283
 C    1.5913094644    0.0632607662    0.0873059100
 C    2.3009399698   -0.9418489640    0.8765761346
 C    1.5726521242   -1.8405606952    1.5431363520
 C    0.0622534676   -1.8072890283    1.5445678546
 O   -0.4957316777   -0.5561295673    1.1640746054
 C    0.0640017630   -0.0344461986   -0.0220702885
 H   -0.5363900697    1.8691440460    0.8593052645
 H   -0.4636615353    1.9922763974   -0.9217337273
 H    2.0989240954    2.3095434686    0.6074516857
 H    1.6098310183    0.7883151840   -1.8585093624
 H    3.3860285054   -0.9415324628    0.8876618127
 H    2.0397813606   -2.6364896854    2.1160397451
 H   -0.3295148435   -2.6159900946    0.9010269409
 H   -0.3166659724   -2.0003448388    2.5543939500
 H   -0.3159386499   -0.5715594654   -0.9065148806