16

 C   -0.0297537849    1.5462625780    0.0064061280
 C    0.0227104596    0.0180945368   -0.0001676905
 C    0.7288293513   -0.5140642127   -1.2445191818
 O    0.8185943750   -1.9461757780   -1.2340134554
 C    1.0226703012   -2.5140906585   -0.0200070726
 N    1.0332332507   -1.9843607279    1.1271577478
 C    0.7441454750   -0.5559187700    1.2269835002
 H    0.9787805650    1.9752575925   -0.0137524439
 H   -0.5765119646    1.9340413585   -0.8597210182
 H   -0.5288319784    1.9154556383    0.9079069091
 H   -1.0017515936   -0.3771935364   -0.0081667659
 H    0.1952633890   -0.2562098873   -2.1633065296
 H    1.7455748307   -0.1017357908   -1.3119101539
 H    1.1893944785   -3.5831122571   -0.1414252773
 H    1.6888574423   -0.0183181015    1.3951907728
 H    0.1428211932   -0.3960156939    2.1295287410