14

 O   -0.0902391773   -0.0476849293   -0.0016385844
 C   -0.0342224360    1.1524871678    0.0076784665
 N    1.1558247755    1.8773899947    0.0006174720
 C    2.4349447614    1.3308923983   -0.0185832142
 C    3.3271057529    2.3566984800   -0.0198659228
 C    2.5805909407    3.5967071210   -0.0007263486
 C    1.2499635302    3.2586895936    0.0116309484
 C    3.1202412615    4.9034016258    0.0043887443
 C    3.6005179395    6.0077910419    0.0084545408
 H   -0.9157918830    1.8174853899    0.0239790334
 H    2.5540062294    0.2611968917   -0.0291917662
 H    4.4023800878    2.2740105714   -0.0328046834
 H    0.3675786184    3.8769338570    0.0271077953
 H    4.0183013090    6.9837956865    0.0121326289