21

 C   -0.0487201844    1.4659431738    0.0108216083
 C   -0.0477989075    0.0106273420    0.0027385628
 C   -0.0527275145   -1.1924602821   -0.0038584665
 C   -0.0304653324   -2.6485157798   -0.0121670017
 O   -1.3504723718   -3.1598237170   -0.0019263991
 C   -1.3807034809   -4.5717973628   -0.0093108892
 C   -2.8349972421   -5.0192240196    0.0024875498
 C   -2.9822164703   -6.5351074766   -0.0041744722
 O   -4.3695426934   -6.8333408785    0.0077814227
 H    0.9735305673    1.8600946860    0.0027836648
 H   -0.5659015893    1.8692109449   -0.8666146804
 H   -0.5481990275    1.8593777716    0.9028561744
 H    0.5117900335   -3.0108036481   -0.9035804748
 H    0.5293411100   -3.0206289614    0.8642262792
 H   -0.8609528938   -4.9610053846   -0.9031609357
 H   -0.8436044504   -4.9706372630    0.8699172741
 H   -3.3315083610   -4.6135370013    0.8900660667
 H   -3.3487038494   -4.6041262394   -0.8708378666
 H   -2.4924174864   -6.9559412503   -0.8981157711
 H   -2.4751017229   -6.9654128145    0.8754908757
 H   -4.4712597927   -7.7894307993    0.0033905586