16

 O   -0.2119450477    1.3678051260    0.1079012452
 C   -0.0394002466    0.0233059967    0.0749806484
 C    0.2092332432   -0.7529352913   -1.0161533109
 O    0.3200337446   -2.0709045289   -0.6290543930
 C    0.1362308201   -2.0974062664    0.7178610041
 C   -0.0878038116   -0.8499605226    1.2080652782
 N    0.3443502919   -0.3590900854   -2.3419407657
 C    1.3088057153   -1.0507509042   -3.2098850058
 C   -0.1540074570   -1.2339755328   -3.4134052387
 H   -0.1245965298    1.6804103570   -0.8023668561
 H    0.1935415756   -3.0693396722    1.1791824820
 H   -0.2651502391   -0.5725293637    2.2345510012
 H    1.8767991292   -0.4054549963   -3.8734513481
 H    1.8598534354   -1.8794427661   -2.7758341947
 H   -0.5838587715   -2.1855361620   -3.1158428409
 H   -0.6613197821   -0.7233764878   -4.2265900053