21

 C    0.6301396927    1.4985275875    0.0403380548
 C    1.2897434582    0.1453854279   -0.1520611442
 C   -0.2019465222    0.2586621053    0.0671026373
 C   -0.8335301731   -0.2573543748    1.3601081872
 C   -1.7485809811   -1.4507993136    1.0337555133
 C   -2.8708401762   -0.9540445730    0.0772327855
 C   -1.8074397246   -1.0933948445   -1.0422616590
 C   -1.1635371265   -2.2217233382   -0.1890338260
 O   -0.9996838338    0.0799223253   -1.0872153941
 H    0.7912793847    2.0295471949    0.9727679713
 H    0.5284333074    2.1322355269   -0.8333837174
 H    1.6150594001   -0.1059407997   -1.1551769008
 H    1.9107086521   -0.2485301864    0.6463417877
 H   -0.0401434256   -0.5486827654    2.0568734210
 H   -1.4223981713    0.5285870329    1.8505783924
 H   -2.0310630785   -2.0096667692    1.9284533399
 H   -3.6764492961   -1.6854523723   -0.0297674453
 H   -3.2868994306    0.0439816387    0.2385497135
 H   -2.1187738487   -1.2923771039   -2.0692832035
 H   -0.0846776552   -2.3731503262   -0.2565350337
 H   -1.6800858117   -3.1704786922   -0.3537648897