17

 C   -0.1136751452    1.4896751833    0.0110483787
 C    0.0918704773    0.0031426598   -0.0185437843
 O   -0.4726322377   -0.7744939849    1.0462944217
 C    0.9686253442   -0.7814903826    0.8712276719
 C    1.4688975399   -1.9534044674    0.0893113252
 C    0.9402689697   -1.9491645926   -1.1391604067
 C    0.0637653775   -0.7602193528   -1.3350148086
 C   -1.0571896256   -0.6898473609   -2.2828711393
 O    0.1687919736   -0.0137866773   -2.5584920593
 H    0.5883559136    1.9888911491   -0.6615505013
 H   -1.1281139271    1.7491646248   -0.3114682133
 H    0.0248779684    1.8682318123    1.0263422941
 H    1.5314298109   -0.3509042142    1.6939076328
 H    2.1341079750   -2.7048347549    0.4954026369
 H    1.0826087532   -2.6966834759   -1.9100110368
 H   -1.2760229765   -1.5450071496   -2.9209574917
 H   -1.9090769613   -0.0507294063   -2.0539328903