18

 N   -0.0521820167    1.2119268218    0.3912288073
 C    0.0301112023    0.0129262773   -0.0020418319
 O    1.2257527743   -0.5641240213   -0.3156914046
 C    1.2312622679   -1.7510811686   -1.1222435514
 C    0.2982504468   -2.8104769450   -0.5559137933
 C   -1.1414045237   -2.2904158084   -0.5780849171
 C   -1.9600510994   -2.6034029703    0.6875298598
 O   -1.6552725424   -1.3022300769    1.2370156864
 C   -1.2249200311   -0.8326237806   -0.0680430474
 H    0.8780905011    1.6358595244    0.4289421144
 H    0.9545710493   -1.4914570199   -2.1543195336
 H    2.2714206119   -2.0842850363   -1.1261904613
 H    0.3931066882   -3.7403416436   -1.1260601451
 H    0.6090687298   -3.0210694293    0.4735164908
 H   -1.6221465397   -2.4820604039   -1.5400140323
 H   -3.0373860249   -2.7250857332    0.5100067109
 H   -1.6034699788   -3.4175363713    1.3280443986
 H   -2.0143002851   -0.2341071051   -0.5374575101