20

 C   -0.0784034140    1.6351429263   -0.1084213600
 C    0.0235650256    0.1092784789   -0.0178252797
 C   -1.3350152295   -0.5592204853    0.1163346906
 O   -2.1244483355   -0.3087693569   -1.0598470094
 C   -2.9783409462   -1.3422939053   -1.2409408493
 N   -3.9259907989   -1.3006412269   -2.0664460535
 O   -2.6502164958   -2.3799583246   -0.4164524340
 C   -1.3858787990   -2.0975108826    0.2175042324
 C   -0.2759784023   -2.8679344214   -0.4851087461
 H    0.9136837518    2.0849679436   -0.2048797948
 H   -0.6749455915    1.9317751690   -0.9747733721
 H   -0.5516261683    2.0544441452    0.7860016021
 H    0.5330598388   -0.2839536519   -0.9034788849
 H    0.6276857703   -0.1761968985    0.8527381944
 H   -1.8715654867   -0.1281791319    0.9743285383
 H   -4.4137002990   -2.1933523962   -2.0785275079
 H   -1.4717095798   -2.4181944959    1.2592819798
 H   -0.1753711243   -2.5543436133   -1.5280712168
 H    0.6829416398   -2.7173357481    0.0194183389
 H   -0.5077643156   -3.9359430544   -0.4694102579