22

 C   -0.0235806933    1.0240691147   -1.2596907985
 C    0.1094009823    0.2488767090    0.0625855242
 C    0.2921153190    1.2089116383    1.2465609829
 C   -1.1424418896   -0.6143129280    0.2389093588
 C   -1.3670020288   -2.0729876442    0.1519580316
 C   -0.4118899492   -3.0254104347    0.8978615895
 C    0.6822287227   -2.3500804929    1.6878220227
 C   -0.7393225471   -2.2439852139    2.1487581642
 N   -1.7023471790   -1.3227207704    1.4275728991
 H    0.8763629744    1.6161808559   -1.4533758945
 H   -0.1698405600    0.3446674542   -2.1058029734
 H   -0.8768761612    1.7116074695   -1.2287566518
 H    0.9990475954   -0.3753159023   -0.0369865114
 H    0.4358177389    0.6672185862    2.1854826388
 H    1.1583176702    1.8599533694    1.0890021161
 H   -0.5904776236    1.8471566661    1.3657284642
 H   -2.0001661213   -0.0832886705   -0.1816897592
 H   -2.1691094150   -2.4904270119   -0.4520297006
 H   -0.4312830368   -4.0947514294    0.7359030171
 H    1.2528624040   -3.0582725088    2.2840450236
 H    1.2725190153   -1.5185844038    1.3377694135
 H   -1.0663169873   -2.5810537525    3.1242076531