18

 O   -1.0828099643    1.5576957560   -1.3814303086
 C   -1.2036252133    0.1673844973   -1.4102199268
 C   -1.4285248861   -0.4050539270   -0.0209499209
 O   -1.4200421641    0.3368461016    0.9419542923
 C   -1.7166803017   -1.8846076021    0.0795983289
 C   -1.9300424194   -2.5282180571    1.4687885646
 C   -3.3545354900   -2.8337322797    1.0076324882
 C   -4.0565014322   -1.6081047402    0.5953489701
 N   -3.1308811651   -2.2385406239   -0.3790369900
 H   -1.1150173129    1.7956904355   -0.4412701101
 H   -2.0398033013   -0.1532088457   -2.0520561311
 H   -0.2987330968   -0.3106540247   -1.8254734292
 H   -1.0210257823   -2.4409012448   -0.5546943882
 H   -1.3127371209   -3.4149666279    1.6168659876
 H   -1.8321433519   -1.8657074652    2.3311320157
 H   -3.8613376289   -3.7852792395    1.1267838862
 H   -5.0903865510   -1.7018647101    0.2795832075
 H   -3.7995726379   -0.6537372826    1.0472715238