20

 C    0.0373228833    1.5329268949    0.2226134621
 C   -0.0499182920    0.0422843203   -0.0005357615
 C   -1.2234572008   -0.5998553042    0.0788093335
 C   -1.5790851475   -2.0449656299   -0.1261336706
 C   -0.4852267469   -2.9512156518   -0.6914358097
 C    0.8112376690   -2.9131418188    0.1360718397
 C    1.7411009978   -1.7779629999   -0.2389348910
 O    2.9167777500   -1.9506916638   -0.5006715022
 N    1.2171308274   -0.4999715851   -0.2866359012
 H    0.6886409124    1.7675398437    1.0733247287
 H    0.4605742820    2.0369354230   -0.6561760534
 H   -0.9476685488    1.9609866181    0.4115695479
 H   -2.0670017323    0.0290304097    0.3497576605
 H   -1.9199881373   -2.4630498313    0.8341953234
 H   -2.4599825411   -2.0933828447   -0.7813852164
 H   -0.8624059354   -3.9787751572   -0.7139291761
 H   -0.2656937452   -2.6814891618   -1.7310878415
 H    0.5655662162   -2.8329623224    1.2034074693
 H    1.3980995000   -3.8235429339    0.0031747910
 H    1.9388379293    0.1720862250   -0.5093471326