17

 N   -0.5119674883   -1.0690521504    0.4962495901
 C   -0.3242178183    0.0563671544    0.3126819884
 C   -0.1286896911    1.4824988208    0.0990564308
 C   -1.2574593887    2.2069407709   -0.6122817915
 N   -1.4899824464    1.6477083994   -1.9326670469
 C   -2.5242280846    0.6175854238   -2.0385019443
 C   -2.7652551916    1.9910085286   -2.5557616865
 C    0.7533900522    2.2012636195    1.0419998584
 O    1.2017938284    1.8542886873   -0.2629700693
 H   -2.1560616805    2.1833989401    0.0320713047
 H   -0.9507468767    3.2520293658   -0.7246998880
 H   -2.2997105659   -0.1998179194   -2.7158677731
 H   -3.0497152857    0.3247707180   -1.1315869583
 H   -3.4551728994    2.6192110185   -1.9940007791
 H   -2.7240362517    2.1996032854   -3.6204870110
 H    0.5727942923    3.2612289782    1.2144168176
 H    1.2152845362    1.6565083092    1.8623790879