17

 C    0.0226177014   -1.2058134985   -0.0492839287
 C   -0.0039739880   -0.0051114143   -0.0070894026
 C   -0.0207591590    1.4388055637    0.0688587247
 C   -0.8655765782    2.1529573643    1.1668538972
 C   -1.1054293339    3.1529668817    0.0185514401
 C    0.0352381095    4.1731749709   -0.1128682808
 C    1.3558474664    3.4323903799   -0.0881971307
 C    1.3501201670    2.1038007552    0.0028170372
 O   -0.8770568106    2.0815482975   -0.9434638920
 H    0.0364551111   -2.2668739047   -0.0930921295
 H   -1.7683585326    1.5897521379    1.4046482754
 H   -0.3486549423    2.4794390544    2.0701326702
 H   -2.0965490851    3.5987123771   -0.0925289473
 H   -0.0713764998    4.7335846665   -1.0507465300
 H   -0.0146557407    4.9122390165    0.6983978502
 H    2.2792415619    3.9998497326   -0.1550059150
 H    2.2448862628    1.4937217394    0.0329326115