25

 C   -0.6726256606    2.2648932349    2.2155270321
 C   -0.1508680595    1.3080232482    1.1359806226
 C    0.6361622272    0.1498917193    1.7203048442
 C   -0.0012577290   -1.1521215235    2.1692568392
 C   -1.4882626991   -1.4231479240    2.0694864115
 C    0.9206955613   -1.1309635979    0.9613671077
 C    0.4425485888   -1.3733566005   -0.4561671550
 C    0.4376887250   -2.8552657242   -0.8185003570
 O    0.0288142920   -2.9720978974   -2.1735000352
 H    0.1510054707    2.6697868494    2.8141408339
 H   -1.2090473953    3.1100069200    1.7724263525
 H   -1.3564229911    1.7531638360    2.9007014263
 H   -0.9924160727    0.9477754545    0.5363160338
 H    0.4934265763    1.8630086746    0.4409952005
 H    1.4567634187    0.4902170119    2.3499967886
 H    0.4399694009   -1.5854187914    3.0641363824
 H   -1.9417344702   -0.9914911257    1.1742184251
 H   -1.6883903969   -2.5005980444    2.0481047311
 H   -2.0188543107   -1.0096966906    2.9346556852
 H    1.9098160581   -1.5491590569    1.1414471854
 H   -0.5641689022   -0.9793502638   -0.6207789840
 H    1.0955314666   -0.8507346355   -1.1665866800
 H    1.4459286977   -3.2761167991   -0.6685753701
 H   -0.2439170803   -3.4000621425   -0.1458661960
 H    0.0197028445   -3.9050650113   -2.4055487749