19

 C   -0.3427559230    1.5032594089    0.0362904526
 C    0.1398082013    0.0459960652    0.0653808134
 C    0.7834722498   -0.3619824090   -1.2288043343
 C    0.0490067410   -0.9376606384   -2.3913201872
 N    0.9946736401   -1.8170280600   -1.6947560835
 C    2.3530766561   -1.4226752527   -2.2293936987
 C    2.1656474902   -0.0300131916   -1.6644336240
 N    2.8995937546    0.9586672582   -1.3673067964
 O    4.1984850271    0.7885516307   -1.8857756324
 H    0.4930779940    2.1832128527   -0.1512242277
 H   -1.0871936133    1.6575321938   -0.7517178681
 H   -0.7993693048    1.7785888003    0.9914431707
 H    0.8621735653   -0.0884854069    0.8789033509
 H   -0.6973160641   -0.6318334732    0.2670366706
 H   -0.9901613174   -1.2040081110   -2.2193259068
 H    0.2731744334   -0.6125103845   -3.4053975292
 H    3.1514928250   -1.9751330554   -1.7277928733
 H    2.4577634843   -1.5344808251   -3.3129389489
 H    4.6469489301    1.5820292481   -1.5745950277