19

 C   -0.3134932308    1.4021264535   -0.0384813671
 C   -0.0758575745   -0.0569681979    0.2662443912
 O    0.8732156378   -0.5106444073    0.8493822950
 O   -1.0899815361   -0.8165910703   -0.2176622122
 C   -0.9774060657   -2.2402612585   -0.0268356395
 C   -1.5922574340   -2.6933922301    1.3176766572
 C   -2.9673503586   -2.8449146728    0.6073409777
 C   -2.1993881446   -2.8768160807   -0.7476625079
 O   -2.7140903666   -2.2435287239   -1.8807105145
 H    0.4912298890    1.9971927981    0.3911058028
 H   -0.3514607807    1.5566814734   -1.1208121959
 H   -1.2758560598    1.7219748698    0.3707378388
 H    0.0344476955   -2.5549355229   -0.2818627357
 H   -1.1713422269   -3.6503313612    1.6363361156
 H   -1.5170207839   -1.9855159521    2.1437098786
 H   -3.5903531333   -3.7053798747    0.8582160829
 H   -3.5668947060   -1.9342517946    0.6907901808
 H   -1.9654847099   -3.9068163035   -1.0335733591
 H   -2.6548951307   -1.2949550942   -1.7161279289