21

 C   -0.0153217253    1.6461886442   -0.0371686406
 C   -0.0271469147    0.1142512275   -0.0057801077
 C    0.7424533133   -0.5191495053   -1.1656358383
 C    2.2627172452   -0.2150031814   -1.2066396931
 C    2.8434400910   -1.4356968201   -1.8760627047
 C    1.9785031982   -2.4449136844   -1.9232832411
 C    0.6503435418   -2.0858953853   -1.2694911493
 C    0.4924682227   -2.7858050690    0.0063833450
 C    0.3737990805   -3.3793404536    1.0459953129
 H    1.0014920155    2.0440276396    0.0465723136
 H   -0.4437145957    2.0285831920   -0.9708816183
 H   -0.5999802575    2.0603610687    0.7900297152
 H    0.3912902351   -0.2432193947    0.9420697742
 H   -1.0650554225   -0.2410483127   -0.0290077199
 H    0.3175030847   -0.1449808267   -2.1058281422
 H    2.4838405604    0.7135210273   -1.7440028825
 H    2.6786631730   -0.0944167371   -0.1951519709
 H    3.8640257556   -1.4750780252   -2.2411880400
 H    2.1722110378   -3.4379831332   -2.3109501736
 H   -0.2001577220   -2.3628510877   -1.9060862676
 H    0.2676797330   -3.9019658829    1.9641155190