23

 C   -0.4612209326    1.3906922505   -0.1231866014
 C    0.1044664324   -0.0208278638    0.0564715961
 C    1.0720946747   -0.3974247734   -1.0600776617
 O    0.8315712795   -0.1297502785    1.2833247960
 C    0.0516964589   -0.3775144554    2.4157208103
 C   -0.3444839436   -1.8494399306    2.7840828875
 C    1.1621307297   -2.0935240826    3.0998283890
 C    0.8322645498   -0.6977217677    3.7131290963
 C   -0.4899078020   -1.3264836053    4.2401709192
 H    0.3527809148    2.1224292991   -0.1390342844
 H   -1.0146597858    1.4664865081   -1.0648231044
 H   -1.1451628316    1.6583154730    0.6873304296
 H   -0.7261911885   -0.7436418680    0.0691257714
 H    1.9286900854    0.2842940406   -1.0616292085
 H    1.4459143664   -1.4148490208   -0.9180412588
 H    0.5812585192   -0.3378994821   -2.0362318513
 H   -0.7559817598    0.3601110785    2.5200361257
 H   -1.0293529244   -2.5125628433    2.2532655427
 H    1.3811555583   -2.8934502813    3.8121880799
 H    1.8457500365   -2.1014413684    2.2519343658
 H    1.5077525273   -0.0292864072    4.2483387392
 H   -1.3194068718   -0.6430923958    4.4466726407
 H   -0.3814237429   -2.0736710059    5.0289576311