20

 C   -0.0854274919    1.4637912587   -0.0544160434
 C    0.0401886938   -0.0493797531    0.0092020808
 C   -1.1704773602   -0.7584043288   -0.5722190017
 C    1.3923539264   -0.6666787051   -0.1616002134
 C    0.7824323547   -0.6648528746    1.2332614150
 C    1.3469667288    0.2216146546    2.3317554708
 C    0.3052632654   -1.9790680238    1.7463869416
 O    0.1042132740   -2.9753793959    1.0902356114
 H    0.8230736283    1.9831826854    0.2559622334
 H   -0.2977110165    1.7672047414   -1.0860039437
 H   -0.9130452267    1.8227655752    0.5679631625
 H   -1.2869929586   -0.4760960955   -1.6249843488
 H   -1.0778742387   -1.8426594269   -0.5183569190
 H   -2.0881424310   -0.4624048210   -0.0503593345
 H    1.4524277208   -1.6373362121   -0.6432856494
 H    2.2461543850   -0.0154525426   -0.3216339144
 H    1.7878060535    1.1382702494    1.9387225521
 H    0.5744644686    0.5080262813    3.0548522134
 H    2.1355306619   -0.3039017385    2.8823383150
 H    0.1424436625   -1.9952645280    2.8489929326