21

 C   -0.0336505592    1.5922454881   -0.0883956866
 C    0.0225729648    0.0690021355    0.0624408518
 C   -1.3471867116   -0.5864003951   -0.0519130838
 O   -1.8895005774   -0.3355001847   -1.3502983703
 C   -2.9921338309   -1.2180081853   -1.5099802427
 C   -2.5679181392   -2.5295171034   -0.8513157397
 O   -1.6675644202   -3.3047976342   -1.6664358242
 C   -0.5417716437   -2.9731402006   -0.8273650245
 C   -1.4203674789   -2.1122003245    0.1071502983
 H    0.9654029342    2.0318718513   -0.0141970880
 H   -0.4596332557    1.8661670602   -1.0567477225
 H   -0.6565383246    2.0438348162    0.6918147102
 H    0.6854729991   -0.3538659168   -0.7003156675
 H    0.4477644468   -0.1983247716    1.0380230553
 H   -2.0167373046   -0.1420698709    0.7090956146
 H   -3.8899843778   -0.8197066777   -1.0071910310
 H   -3.1968681202   -1.3291116798   -2.5775652869
 H   -3.4050691564   -3.1286433346   -0.4788521905
 H   -0.1075450065   -3.8657120665   -0.3608533144
 H    0.2393157750   -2.4439969702   -1.3844591826
 H   -1.4698564229   -2.4362463755    1.1465146350