19

 C   -0.0601889713    1.5328772505    0.0721216598
 C   -0.0165054174    0.0343220376   -0.0435307599
 C   -0.0130060152   -0.6004183794   -1.2171679931
 C    0.0351176869   -2.0961680819   -1.3887254209
 C    0.4669767407   -2.8305728878   -0.1173686653
 O    1.8803882581   -2.6632699879    0.0106784784
 C   -0.2163756001   -2.2118935392    1.1044532987
 O   -0.8801277472   -2.8639502628    1.8759772805
 C    0.0321585393   -0.7224795916    1.2685537344
 H    0.8121293889    1.9119228001    0.6205429921
 H   -0.0792188507    2.0124703980   -0.9099367844
 H   -0.9452946517    1.8620999445    0.6315256741
 H   -0.0532939226   -0.0146009150   -2.1327694620
 H   -0.9474325131   -2.4740424729   -1.7043755025
 H    0.7380007265   -2.3687075092   -2.1855309971
 H    0.1946151830   -3.8920974420   -0.1676304604
 H    2.1748077282   -3.2072438655    0.7490728848
 H    1.0253086196   -0.5920356147    1.7242956971
 H   -0.6941543520   -0.3314371907    1.9891115456