19

 C    0.0255711772    1.4372501992   -0.1561208279
 O    1.2814071187    1.5369083631    0.5407948527
 C    1.4031270247    0.1004151510    0.6179431256
 C   -0.0172442711   -0.0969822603    0.0410727898
 C   -1.0451115588   -0.5839407240    1.0108020939
 C   -1.3492009415   -0.1271022434    2.4671995685
 C   -2.1265991376   -1.4271196358    2.1657374100
 C   -2.5617942795   -0.8547371277    0.7988263050
 O   -0.9119787473   -1.9788084325    1.5215893969
 H   -0.7683277206    2.0118476450    0.3363807175
 H    0.1055453288    1.7623443449   -1.2012894007
 H    2.2109843718   -0.2767358842   -0.0213309848
 H    1.5618236526   -0.2517475676    1.6425240098
 H   -0.0686962168   -0.6886571937   -0.8756849878
 H   -0.5244520260   -0.2342016596    3.1721784304
 H   -1.9183749538    0.7948759375    2.6106447072
 H   -2.6709687836   -2.0797734080    2.8471632181
 H   -3.2439567669   -0.0005004075    0.7876673002
 H   -2.7934017603   -1.5997002665    0.0362833357