18

 C   -0.0212070982    1.5535836053   -0.0473408919
 C   -0.0225233840    0.0125159275   -0.0336438168
 C   -1.4600595491   -0.5430426809   -0.0399842782
 C    0.7752802801   -0.5389935883   -1.1658454266
 C    1.8768211471   -1.2987208287   -1.2382784639
 N    2.1472205417   -1.4890938280   -2.5963715993
 C    1.2074623540   -0.8412794580   -3.3630147321
 O    1.0961674134   -0.7680706499   -4.5561341005
 O    0.3480741767   -0.2474255147   -2.4533662973
 H    0.9971957979    1.9482433447    0.0124439986
 H   -0.4768954009    1.9309244574   -0.9674099975
 H   -0.5920273995    1.9432221997    0.8010244629
 H    0.4776621037   -0.3274921025    0.8819567771
 H   -1.9789322623   -0.2583661430   -0.9599499185
 H   -1.4617629338   -1.6349140004    0.0254531537
 H   -2.0263567331   -0.1461612413    0.8080664689
 H    2.4885611013   -1.7188682350   -0.4589403584
 H    2.9028954751   -2.0103902137   -3.0027638404