17

 C   -0.1172233138    1.5462481053    0.0170834247
 C    0.0617742112    0.0276819849   -0.0223605473
 C    0.8856065452   -0.5158556030   -1.2071757118
 C    1.9528463986   -1.3751030181   -0.5647615602
 N    2.8015855549   -2.0838662329   -1.3534094141
 C    1.8966811088   -1.3425798462    0.7908221972
 C    0.8071485071   -0.4878349055    1.2345236252
 O    0.4950743333   -0.1918011398    2.3712048586
 H    0.8509575780    2.0563929116   -0.0441059768
 H   -0.7410903101    1.9021809192   -0.8089934985
 H   -0.5865669146    1.8327515274    0.9616952679
 H   -0.9291878957   -0.4419277262   -0.0115529380
 H    0.2902425285   -1.1031665091   -1.9161752543
 H    1.3529391015    0.2925596742   -1.7856093107
 H    2.8787523380   -1.8464439791   -2.3280759836
 H    3.6109844468   -2.5200880908   -0.9434266657
 H    2.5627250222   -1.8554328918    1.4726194173