17

 O   -0.0366757739   -0.0869440114    0.1847502129
 C   -0.0380981559    1.1212176604    0.0504110182
 N    1.0613428090    1.9026569773   -0.0970545171
 C    2.3787801359    1.3492261172   -0.1080033211
 C    3.5374549997    1.7227381069   -0.9934988465
 C    3.7977396493    3.2460074103   -1.1392232464
 N    2.7362356521    4.0095586030   -0.4236250046
 C    3.8781727106    3.4086111778    0.3225267857
 C    3.6220241353    1.8936742435    0.5431929296
 H   -0.9685102042    1.7227484198    0.0346885567
 H    0.9953278447    2.9036852028   -0.2048043152
 H    2.3030026507    0.2724629737    0.0159393736
 H    4.0442189099    0.9954854875   -1.6159063521
 H    4.3715460601    3.7062892858   -1.9323180948
 H    2.9483541135    4.9993026809   -0.5454082319
 H    4.5289581870    4.0245377353    0.9285179214
 H    4.2020126663    1.3144172092    1.2511276418