18

 C   -0.2788120311    1.4504785197   -0.0352180298
 C   -0.0063705605   -0.0503958672   -0.0021620057
 C    1.1911925774   -0.5047164550   -0.8874393445
 C    2.0889508810   -0.5551876973    0.3955875363
 C    0.7780981256   -0.5325515893    1.2533920444
 C    2.9971068183   -1.6627636984    0.5564236919
 C    3.7401176900   -2.6089769742    0.6874907915
 C    4.5785758808   -3.6746939809    0.8354205686
 N    5.2925012879   -4.5832103173    0.9613637487
 H    0.6331457590    2.0307359421    0.1482973353
 H   -0.6746324753    1.7562586265   -1.0094548126
 H   -1.0101198983    1.7336531800    0.7291860018
 H   -0.9348923175   -0.5959319080   -0.1884223872
 H    1.0481674818   -1.5006270708   -1.3112957838
 H    1.5205565682    0.1747016605   -1.6768592683
 H    2.6407399832    0.3826743724    0.5142547520
 H    0.7868647190    0.1252642407    2.1254441826
 H    0.4924796005   -1.5380703235    1.5685149887