15

 C   -0.1638670612    1.5660330262    0.0141452157
 C    0.0558123250    0.0555894847   -0.0062460919
 C    0.8255615236   -0.4588882801   -1.2434675104
 C    1.8379882984   -1.4621598257   -0.7062805842
 O    2.5030146139   -2.2422271436   -1.3275909835
 C    1.8705696665   -1.3001432163    0.8322402484
 O    2.6103905685   -1.8559684877    1.6087683035
 N    0.8894817337   -0.3923900207    1.1101639763
 H    0.7918582801    2.0968024157   -0.0398855213
 H   -0.7811963735    1.8705113876   -0.8366360653
 H   -0.6786936080    1.8782909476    0.9289668291
 H   -0.9224555192   -0.4424883801    0.0456065983
 H    0.1838862815   -0.9063831997   -2.0048533079
 H    1.3806942726    0.3576323150   -1.7209101957
 H    0.6699079682   -0.1575979930    2.0667867789