19

 C   -0.2526138989    1.5121739530   -0.1192093770
 C    0.0167754239   -0.0021667816    0.0178903632
 C    0.8499473527   -0.2707211834    1.2827010774
 C   -1.3269435248   -0.7579164542    0.1064873463
 C    0.7678685339   -0.4785519708   -1.1981938296
 C    1.9820901541   -1.0690402054   -1.3567994670
 O    2.2001430796   -1.3004043329   -2.6512893520
 N    1.0429149659   -0.8214149292   -3.3369019879
 N    0.2517238811   -0.3615836275   -2.4772562242
 H    0.6841700086    2.0768034410   -0.1623535773
 H   -0.8186694365    1.7256081405   -1.0297596400
 H   -0.8297774502    1.8734285771    0.7382113394
 H    0.3082304887    0.0736760377    2.1687347734
 H    1.0514974764   -1.3395824377    1.4110079188
 H    1.8080055601    0.2591284234    1.2521238447
 H   -1.9206556605   -0.6029916416   -0.7982663557
 H   -1.1666804952   -1.8340858335    0.2265244603
 H   -1.9063165120   -0.4012633993    0.9643431196
 H    2.7569361830   -1.3675591155   -0.6712976923