16

 O   -0.2257698313    1.5152954778   -0.1243380308
 C   -0.0212186331    0.1271418677   -0.0892376356
 C   -1.2843218199   -0.7234094307   -0.1030886135
 N   -1.7265421182   -0.9844648256   -1.4880612135
 C   -0.7371289509   -0.2392355317   -2.3528574364
 C    0.3918931097   -0.6302853035   -1.3895225908
 C   -0.5713458194   -1.7712229024   -0.9236173229
 C   -0.5472638122   -3.2254810554   -0.7792845702
 O    0.4479348001   -3.9069079609   -0.8501500099
 H    0.6203932051    1.9556084220    0.0047610458
 H    0.6157234771   -0.1778553216    0.7505651398
 H   -2.0161061541   -0.8647366894    0.6815371177
 H   -0.6838094484   -0.7436753213   -3.3189102158
 H   -0.9545374478    0.8252436252   -2.4723719065
 H    1.4330844876   -0.7257549913   -1.6853541939
 H   -1.5539932342   -3.6602976889   -0.5909904037