16

 C   -0.0204664364    1.4315937990    0.0268130952
 N   -0.0000429984   -0.0126546144    0.0471534720
 C   -0.0188201422   -0.7618420707   -1.1288112338
 O   -0.0534460283   -0.3489490542   -2.2750792166
 N    0.0116162385   -2.0704419732   -0.6808244672
 C    0.0477204778   -2.1216111596    0.7120024093
 C    0.0407794987   -0.8505681648    1.1687843806
 C    0.0681987850   -0.3279186709    2.5621266683
 H    0.8773107141    1.8541768416    0.4910911643
 H   -0.0536155188    1.7288424607   -1.0229595841
 H   -0.9024438097    1.8295050003    0.5404680925
 H    0.0077612077   -2.8481869849   -1.3153526511
 H    0.0748302423   -3.0508577037    1.2541058712
 H    0.0994468757   -1.1602894993    3.2691377589
 H    0.9458782275    0.3031546532    2.7481438879
 H   -0.8183096633    0.2752835110    2.7933171926