15

 O   -0.0632422229    1.3579122141   -0.0547064875
 N    0.0414771944   -0.0312054060   -0.0805935848
 C   -1.1039656757   -0.6077838369   -0.0269642723
 C   -1.1037741796   -2.1127808828    0.0314635123
 O   -2.1870805066   -2.6911706009   -0.7074263920
 C   -3.4263546014   -2.1329931829   -0.5768485262
 N   -4.4824085908   -2.7684829923   -0.8915382507
 C   -3.5057401479   -0.7322503340   -0.1489158752
 C   -2.4120972515    0.0198483109    0.0542091892
 H    0.8585721791    1.6358969216   -0.0849694557
 H   -0.1850381420   -2.5194945367   -0.3916442833
 H   -1.1803135760   -2.4386950045    1.0789414809
 H   -4.2419444618   -3.7157120278   -1.1921541681
 H   -4.5102322699   -0.3338833223   -0.0778092219
 H   -2.4724766675    1.0779357903    0.2742616251