13

 C    0.0364675937   -1.1794460557    0.0078637052
 C    0.0023377389    0.0220635286    0.0023146457
 C   -0.0237017062    1.4632245443    0.0059026975
 C    0.4969464072    2.1798746437    1.2616723413
 C    1.3259504363    2.1979245209    0.0221962412
 C   -1.1101458499    2.0815033808   -0.7117302665
 C   -2.0112049772    2.6097491922   -1.3065981296
 H    0.0565393642   -2.2409281485    0.0062251893
 H   -0.0307728400    3.0819042049    1.5463594275
 H    0.8019627393    1.5402967637    2.0808766419
 H    2.2080780869    1.5709174630   -0.0214463474
 H    1.3753278261    3.1125137890   -0.5559724264
 H   -2.8109790992    3.0663848732   -1.8347969395