20

 C    0.3676926363    1.3306585302    0.3191338601
 C   -0.1883469486   -0.0361923120   -0.0969703130
 C    0.5310680175   -0.6167359120   -1.2977744307
 C    1.9471617013   -1.2214934287   -1.2515623723
 C    2.0512110912   -2.0641454441    0.0070783503
 O    2.7447062244   -2.0888300503    0.9845964404
 N    0.9579513230   -2.8635849567   -0.3815082500
 C    0.7286767769   -2.0737143736   -1.6053561191
 C    0.3678476809   -2.7670064311   -2.8837620906
 H    1.4212780821    1.2498017953    0.6034420957
 H    0.2950994747    2.0556341756   -0.4989708450
 H   -0.1832469806    1.7350676564    1.1734142323
 H   -0.1236673512   -0.7277747256    0.7498376065
 H   -1.2550596367    0.0547392386   -0.3396279058
 H    0.4042353450   -0.0206403798   -2.2027130182
 H    2.7560152568   -0.8702350984   -1.8772104618
 H    0.2250854798   -3.1424221987    0.2623348764
 H   -0.6634631282   -3.1378130043   -2.8541629408
 H    0.4461312880   -2.0797392935   -3.7312611668
 H    1.0283612973   -3.6210415373   -3.0611107876