19

 C   -0.2595910465    1.2768513213    0.1051018438
 O    0.3761793584    0.0409948514   -0.1361850590
 C    0.8704852983   -0.5624997866    1.0278593542
 C   -0.0959272169   -1.3890449079    1.9154032914
 C   -0.1354628235   -2.4921721803    0.7962903527
 C   -0.1714997834   -3.8316971113    1.5177541879
 O    0.7365764923   -3.5787971553    2.6045465313
 C    1.1266785513   -2.2405507132    2.3657486349
 C    1.3586304790   -2.0040313869    0.8442396346
 H    0.4206970718    1.9951829977    0.5888639289
 H   -0.5654973376    1.6796094662   -0.8633113074
 H   -1.1504438273    1.1655248585    0.7411139872
 H    1.5438914314    0.1256737862    1.5617419466
 H   -0.9254272343   -1.0501961195    2.5368274188
 H   -0.7290260667   -2.3421601427   -0.1014621682
 H   -1.1634534267   -4.0901005590    1.9090796323
 H    0.1956617717   -4.6661937577    0.9074638491
 H    1.8301534240   -1.9013460821    3.1247388628
 H    2.1886551147   -2.3592568489    0.2334407783