23

 C   -0.9365334545    1.1361162734   -0.2101071329
 C    0.0271735345   -0.0416211366   -0.2253724961
 C    1.3884136011    0.1209219476   -0.9657615316
 C    2.1166118463   -0.5087533306    0.2601476759
 O    3.0981292793    0.2660756283    0.9100335132
 C    2.5089779325    1.1319450915    1.8883161844
 C    2.5579748717    2.5919725796    1.4363127479
 C    1.0783726676    0.5946670507    2.1683152657
 C    0.7960498936   -0.4553673152    1.0771770650
 H   -0.4514466555    2.0587875041    0.1249773780
 H   -1.3296697089    1.3232207284   -1.2156149997
 H   -1.7904329794    0.9494188206    0.4512308019
 H   -0.5022993709   -0.9206851166   -0.6074071898
 H    1.4899911924   -0.4126285286   -1.9143264438
 H    1.6826563575    1.1616208015   -1.1245809834
 H    2.5424187196   -1.4972924691    0.0667050266
 H    3.1306415263    1.0369712232    2.7875694727
 H    1.9033151770    2.7745550111    0.5786580574
 H    2.2413796264    3.2522124413    2.2514531545
 H    3.5778003178    2.8644651037    1.1503519490
 H    1.0396050049    0.1246190612    3.1541533790
 H    0.3469448793    1.4073045175    2.1766652979
 H    0.4527573912   -1.3941166270    1.5156899083