17

 C    0.0975489716    1.4712188075   -0.0519934195
 C    0.0183052008   -0.0179756006   -0.0403260111
 O    0.6300261001   -0.7984529320   -1.1133048833
 C    0.0738511235   -1.8343139872   -0.2563842421
 C    0.3632224964   -1.0752727182    1.0670850039
 O   -1.0018847319   -1.1699550334    1.5659306920
 C   -1.1965035883   -1.0080099357    0.1219628507
 C   -2.5998682523   -1.0383082599   -0.3927282573
 O   -3.2301544000   -2.2679214311   -0.0822667355
 H    1.1408087627    1.8002424199   -0.0321385587
 H   -0.3765980552    1.8789074208   -0.9497742361
 H   -0.4131626664    1.8716968935    0.8289344144
 H    0.1953668540   -2.8797327271   -0.5340755502
 H    1.1901429411   -1.1384014809    1.7738800568
 H   -3.1561402328   -0.1794668847    0.0158453785
 H   -2.5871589812   -0.9438356959   -1.4833843288
 H   -3.0999322121   -2.4150844148    0.8618527163