12

 O   -0.9019869704    1.1860819865    0.1391633816
 C    0.2237203347    0.8314188541   -0.0963187187
 C    1.4041623112    1.7670979606   -0.0234508411
 N    2.5583458001    1.2321460703   -0.3067390956
 C    3.6972929130    2.0140257426   -0.2657958962
 O    4.8102524762    1.6609730551   -0.4999778739
 O    3.5248645427    3.3917092370    0.0934364852
 C    2.3235438569    3.8865666690    0.3731103718
 C    1.2048086351    3.1311653422    0.3363568468
 H    0.4960188889   -0.2017778118   -0.3848415545
 H    2.3594400782    4.9415070398    0.6261545759
 H    0.2222823833    3.5180612746    0.5607321785