22

 C    0.1087792267    1.4808229519    0.1994101265
 C   -0.2002471429    0.0206587175   -0.1234619007
 N    0.8530877375   -0.5494896545   -0.9505434301
 C    0.7591982423   -1.9710988888   -1.2399682274
 C   -0.5638444330   -2.4612477124   -1.8789986142
 C    1.8938125244   -2.3147233815   -2.1953462682
 O    2.3187867883   -1.5749978111   -3.0480978576
 O    2.3336462198   -3.5721298699   -2.0067393013
 C    3.3577420487   -4.0065732280   -2.9119545792
 H    1.0765297951    1.5681958743    0.7008815162
 H    0.1486033657    2.0828433632   -0.7156452724
 H   -0.6642371630    1.9088579941    0.8448026904
 H   -0.2466235985   -0.5600732891    0.8079916673
 H   -1.2060074957   -0.0434200034   -0.5760860727
 H    0.9643699057   -0.0401597410   -1.8216785818
 H    0.9172650690   -2.5303679654   -0.3102014005
 H   -0.5213703168   -3.5369580638   -2.0746241052
 H   -1.4078718071   -2.2724090681   -1.2112106145
 H   -0.7472765422   -1.9416284280   -2.8252923320
 H    3.0000088166   -3.9740213796   -3.9442350000
 H    4.2407548631   -3.3686053599   -2.8266793796
 H    3.5956460864   -5.0298621568   -2.6216925732