15

 C    0.0505731309    1.4364839591    0.0057104431
 C    0.0036610940   -0.0753047974   -0.0310051250
 O    1.0351752073   -0.7408010720   -0.0806844881
 C   -1.2871322194   -0.7510906495   -0.0068868033
 C   -2.5675614875   -0.2632973056    0.0462488332
 O   -3.4544058693   -1.2628951614    0.0493767114
 C   -2.7581250226   -2.4537315178   -0.0029733753
 C   -1.4240628105   -2.1927389858   -0.0388966703
 O   -0.4054000019   -3.0627126129   -0.0933239600
 H    1.0888248623    1.7683030305   -0.0191736462
 H   -0.4898918076    1.8559009359   -0.8495713955
 H   -0.4333499807    1.8112956622    0.9139287930
 H   -2.9740914776    0.7347220638    0.0844070382
 H   -3.3490635529   -3.3513623455   -0.0068026203
 H    0.4039855555   -2.5134104034   -0.1052246450