17

 C   -0.0186580523    1.5106562669    0.0467144740
 C    0.0145237049    0.0175373707   -0.0024522313
 C   -0.0553160822   -0.7749276641   -1.0807370820
 C   -0.0223974588   -2.2473352411   -0.7586604558
 C    0.0383538166   -2.2638219526    0.7726888558
 O    0.0365705432   -3.2244493834    1.4950786584
 C    0.1084158246   -0.8127127550    1.2282581333
 C    0.7769548142   -0.4581903941    2.4959062692
 O   -0.6399607593   -0.4559224373    2.4026777653
 H    0.9375667484    1.9205951696    0.3950661232
 H   -0.2295044590    1.9367335002   -0.9371880421
 H   -0.7859821869    1.8517355986    0.7501446040
 H   -0.1307052424   -0.4074320980   -2.0984813544
 H   -0.9011764813   -2.7986285188   -1.1160445841
 H    0.8527333512   -2.7681322206   -1.1686329142
 H    1.2024370653   -1.2641332677    3.0918666229
 H    1.2473871638    0.5189100167    2.5963646579