20

 O    0.0530356684    1.4171511247    0.2323773400
 C    0.0332861741    0.0246460800    0.0195021824
 C   -1.3708597722   -0.5920720241   -0.0184438342
 C   -2.4507115320    0.2148524989   -0.7724772543
 C   -2.0647211443   -0.5967956197   -2.0436945939
 C   -1.3406111856    0.1370413876   -3.1672193700
 C    0.0518995291    0.4626833142   -2.5780123367
 C    0.2410752497   -0.5453632126   -1.4261704934
 N   -1.0193964958   -1.3739064637   -1.2784130890
 H    0.9676785175    1.7017470226    0.3242414333
 H    0.6748598236   -0.4917851761    0.7447145769
 H   -1.6947517056   -1.1528456575    0.8615116261
 H   -3.4677125859    0.0383827956   -0.4171601989
 H   -2.2755991166    1.2922365591   -0.8144842667
 H   -2.8645001260   -1.2439288872   -2.4144872728
 H   -1.2433880414   -0.5286235382   -4.0318626027
 H   -1.8820319635    1.0281501799   -3.4990439605
 H    0.8410085751    0.3774835336   -3.3287978069
 H    0.0840464797    1.4814385596   -2.1813422005
 H    1.1336242219   -1.1644052067   -1.5475443281