21

 C   -0.1338871030    1.5496950120    0.0251678616
 C   -0.0089804747    0.0484051223   -0.0278747327
 C    0.0295887006   -0.6205316577   -1.1834498576
 C    0.0642993607   -2.1203344664   -1.3099361703
 C   -0.3545263354   -2.8056893074   -0.0050202882
 C    0.3657905487   -2.1691289742    1.1858958609
 C    0.0352228752   -0.6645432295    1.3165298208
 C    1.0923100843   -0.0372874207    2.2132332864
 O    0.9003144703    0.4034189067    3.3160773520
 H    0.7172820508    2.0165805359    0.5365702224
 H   -0.2020633268    1.9796645304   -0.9773392941
 H   -1.0283797083    1.8485201531    0.5869433779
 H    0.0041340058   -0.0537259843   -2.1125919037
 H   -0.5919329300   -2.4321514064   -2.1318071815
 H    1.0733608920   -2.4483452423   -1.6024926011
 H   -1.4385380733   -2.7029479264    0.1284484106
 H   -0.1381204981   -3.8782587335   -0.0474919906
 H    0.1103740112   -2.6765828669    2.1214469738
 H    1.4499720186   -2.2887777385    1.0491056032
 H   -0.9236683992   -0.5306842027    1.8345750684
 H    2.1141134206   -0.0394720235    1.7624001921