16

 O    0.0301233459    0.0328355153    0.0309064760
 C    0.0026071698    1.2271075062   -0.0042161633
 C   -1.1082778756    2.2934626794    0.0546467561
 C   -0.0479702499    3.1540110823    0.8200755020
 C    1.0571838522    2.3542640913    0.0579402410
 C    1.1370022678    2.8997798742   -1.3612347989
 C    0.0030081173    3.1636092658   -2.0130945902
 C   -1.3306398585    2.8671791799   -1.3656188987
 H   -2.0454054844    2.0300483577    0.5481128880
 H   -0.0671881922    4.2300189072    0.6374217196
 H   -0.0492694041    2.9456621073    1.8922357493
 H    2.0250669777    2.1662979010    0.5205488154
 H    2.1125095568    3.0541923496   -1.8101047206
 H    0.0087960581    3.5747325658   -3.0181092849
 H   -1.8890924447    2.1387653149   -1.9690613669
 H   -1.9580374663    3.7683502919   -1.3218273039