19

 C    0.2290389594    1.2414108195    0.2127414389
 O   -0.2772124928    0.0029639797   -0.2531850060
 C    0.5189614672   -0.5819933649   -1.2413501929
 C    1.7654596980   -1.4225389201   -0.8463104903
 O    2.9126064834   -0.8662317379   -0.3151557971
 C    0.8026075252   -2.4703282186   -0.2051811686
 C    0.1752293771   -2.0574184694   -1.5824719145
 O   -0.9681620302   -2.5390962592   -2.1799662238
 C    1.5830287963   -2.1689465254   -2.2089482079
 H    1.2126478592    1.1242071526    0.6846253123
 H    0.3197614137    1.9697559567   -0.6074586425
 H   -0.4831333633    1.6247806697    0.9472982847
 H    0.6601434523    0.0966079759   -2.0955889883
 H    3.5225442198   -1.5760184564   -0.0866380994
 H    1.1735173187   -3.4967795383   -0.1408983530
 H    0.2688953777   -2.1566425952    0.6911803965
 H   -1.7206932600   -2.2447556520   -1.6542714590
 H    1.7661498078   -1.5938131043   -3.1203389565
 H    1.9985850805   -3.1772577327   -2.2660942028