17

 C   -0.0690067918    1.5540560695   -0.0019048563
 C    0.0783493638    0.0329100469   -0.0026987294
 C    0.7450699805   -0.5112006463   -1.2822107926
 C    1.0315368247   -1.9849997627   -1.1701729612
 C    1.2892011168   -2.5150275154    0.0257883677
 N    1.2742513693   -1.7407673962    1.1913406552
 C    0.7821929570   -0.4542722329    1.2686681423
 O    0.8614144836    0.1921501033    2.2939268237
 H    0.9080509820    2.0396022415   -0.0947069449
 H   -0.6913236566    1.8783838100   -0.8414799108
 H   -0.5211650196    1.8980629280    0.9296008703
 H   -0.9236450506   -0.4214015514    0.0558287933
 H    0.0967693487   -0.3006310922   -2.1393988479
 H    1.6799823288    0.0407225260   -1.4713026575
 H    1.0566434798   -2.6086036144   -2.0549089583
 H    1.5294101488   -3.5606495252    0.1785992072
 H    1.6568439147   -2.1077157887    2.0495293993