21

 C    0.4649018691    1.6011551556   -0.2969774281
 C    0.1112831722    0.1369821991    0.0089068028
 C    0.4361113936   -0.7779010523   -1.1498411492
 C    1.5151292925   -1.5356292906   -0.9437337193
 C    2.1560721037   -2.4898876292   -1.9010089505
 C    2.0952253837   -1.2865098236    0.4328657522
 C    0.9537188637   -0.5199399427    1.1621953974
 C    1.4042410061    0.3787048841    2.2134261591
 C    1.7842245817    1.1162537600    3.0844639796
 H    1.5262718278    1.7087139535   -0.5427087133
 H   -0.1143367197    1.9600717327   -1.1541058079
 H    0.2485163265    2.2461598149    0.5590087021
 H   -0.9528352229    0.0958500264    0.2720582281
 H   -0.1300077545   -0.7514903286   -2.0760717948
 H    1.6187064586   -2.5295848511   -2.8524360613
 H    3.1952683728   -2.2034609397   -2.1086427793
 H    2.1927659371   -3.5053096190   -1.4860236699
 H    2.3660947118   -2.2072872388    0.9617471477
 H    3.0113418019   -0.6839916041    0.3714743684
 H    0.3067888010   -1.2788817118    1.6191127542
 H    2.1180209634    1.7658785152    3.8550000719