14

 N    0.0167041485    1.3717778242   -0.1091786362
 C   -0.0156281177    0.0060856805   -0.0426570228
 C   -1.2028647485   -0.6809103410    0.0460788044
 N   -2.4407889790    0.0013142156    0.1283290603
 C   -1.1926242735   -2.1093001389    0.1190953764
 O   -2.1338116549   -2.8528736490    0.2388629464
 O    0.1047148604   -2.6863951277    0.0658584566
 C    1.1815969623   -1.9106773519   -0.0602349188
 N    1.2061414124   -0.6318093391   -0.1177683061
 H    0.9150361831    1.7874678672    0.0849805042
 H   -0.7848439815    1.8391368438    0.2921180820
 H   -2.6677065238    0.4802745079   -0.7392390424
 H   -3.1764804380   -0.6729432907    0.3163431240
 H    2.0968931604   -2.4923057312   -0.1121079081