17

 C    0.0104626759   -0.3729245276    1.3557974676
 C    0.0601357609    0.3141010280    0.3706308694
 C    0.1548221400    1.1659925983   -0.8077646155
 C    1.4089085483    2.0453367304   -0.7922154394
 O    1.4776615774    2.8839718145   -1.9699574714
 C    1.6070467128    4.0967915789   -1.1908636998
 C    1.4287407312    3.2934441237    0.0925411047
 C    0.7679116062    3.5991139733    1.3590303171
 O    2.1969828541    3.4517573802    1.2580648383
 H   -0.0397710989   -0.9903438256    2.2183601593
 H    0.1809219872    0.5535348389   -1.7176592670
 H   -0.7294555241    1.8092644263   -0.8895699751
 H    2.3083934394    1.4263880885   -0.6804179572
 H    2.5979413418    4.5556453480   -1.2948309667
 H    0.8321388398    4.8316612344   -1.4374677524
 H    0.4188919731    4.6124918029    1.5530629783
 H    0.2585315248    2.8077659266    1.9047782397