14

 O   -1.0467931715    1.6542331456   -0.0664043003
 C    0.0001684244    1.1497458108   -0.3801088657
 C    1.3415818055    1.8933496164   -0.3214879547
 O    2.3518785761    1.3016279690   -0.6106828993
 C    1.2749465547    3.3354613899    0.1373613943
 C    1.1607944080    3.5312485525    1.6756717649
 C    2.5198665323    4.2450394582    1.5192406274
 O    2.5366512532    4.0037043667    0.0937174216
 H    0.0979262057    0.1003494223   -0.7303337070
 H    0.4999884913    3.8565602160   -0.4397934123
 H    0.3233420129    4.1504321583    1.9945388761
 H    1.1781670838    2.6141786844    2.2663901961
 H    2.5199425961    5.3166910938    1.7480237686
 H    3.3694122375    3.7685195060    2.0203592702