14

 C   -0.0357781869    1.4842252822    0.0127735632
 C    0.0063703388    0.0310885762    0.0059229301
 C    0.0502633586   -1.1710623020    0.0090901756
 C    0.0572759069   -2.6424964694   -0.0044189003
 O   -1.2508734894   -3.1820224226    0.1681270785
 C    0.6773845353   -3.1332851235   -1.2508612401
 C    1.1410301433   -3.5344335768   -2.2825194906
 C    0.8443917599   -3.1403010062    1.1553666482
 N    1.4762857656   -3.5100354277    2.0472092369
 H    0.7180475890    1.8902702155    0.6952756488
 H    0.1582953286    1.8902089231   -0.9853629437
 H   -1.0153028520    1.8466209355    0.3417030541
 H   -1.7914314418   -2.8298318809   -0.5499366336
 H    1.5608051740   -3.8924413533   -3.1908352270