19

 C   -0.0005487883    1.5236991969   -0.1573114044
 C    1.5329533859    1.5820228058    0.1858873450
 C    1.4611780749    0.1241460889    0.6898560547
 C    0.9064301339   -0.4449656183    2.0253989471
 C    0.8526282091   -1.7667573144    1.2976985398
 C   -0.3572093566   -0.8145889228    1.2589508038
 C    0.0474632638   -0.0133644862    0.0234906535
 C    0.6503933290   -0.9729058983   -1.0457515027
 C    1.6867110223   -1.2974763669    0.0626288441
 H   -0.6203150314    2.0142574225    0.5978669869
 H   -0.3001274232    1.8952716814   -1.1407431888
 H    2.1675994147    1.6915642620   -0.6982426569
 H    1.8477017843    2.3289120019    0.9190981734
 H    1.0877485525   -0.2305262823    3.0712071793
 H    0.7927697626   -2.7577258535    1.7257567327
 H   -1.3324130913   -1.1148033128    1.6283277487
 H    0.0294940939   -1.7843408949   -1.4375564411
 H    1.0971272981   -0.4223116171   -1.8798619473
 H    2.6436059657   -1.7895358619   -0.1252775276