16

 C    0.3370095959    1.3762748584   -0.2981215601
 N    0.0423842726   -0.0051141692    0.0175255750
 C    0.3140426471   -0.5591141852    1.1129718249
 O   -0.0279220207   -1.8790359349    1.2340372300
 C    0.2474316661   -2.5019987202    2.4824690473
 C    1.6282951160   -2.1131126773    2.9526354754
 O    1.6732021986   -0.6951302783    3.1681841801
 C    1.0045302186    0.1022230937    2.3029682283
 O    0.9884652835    1.2896345797    2.4775845101
 H    1.2297112754    1.7748326965    0.1926205897
 H    0.4416877047    1.4616373613   -1.3835512989
 H   -0.5068675213    2.0087010709    0.0024962056
 H   -0.5022880617   -2.2142670696    3.2328294706
 H    0.1735069786   -3.5783181290    2.3100903636
 H    1.8779086027   -2.5726210252    3.9116148511
 H    2.3847116339   -2.3985591716    2.2119438873