17

 C   -0.1054201810    1.3607343319   -0.0293319006
 O    0.1130115540   -0.0414275066   -0.0681473620
 C    0.6601616864   -0.5854100340    1.0906846594
 C   -0.2056547077   -0.6339349747    2.4272295848
 C   -0.0517433392   -2.1564523159    2.3997975446
 N   -0.7025806467   -2.5882069921    1.1454383293
 C    0.6987634484   -2.1215493904    1.1135422058
 C    2.0048725644   -0.0377426828    1.3671805834
 N    3.0529906403    0.4049149247    1.5716325190
 H    0.8339773437    1.9143279990    0.0998563239
 H   -0.5519572653    1.6290263920   -0.9880987472
 H   -0.7964168269    1.6386694247    0.7780884536
 H    0.2778996536   -0.1329826512    3.2657841690
 H   -1.2319889550   -0.2837597052    2.3032067529
 H    0.0660893986   -2.8241243598    3.2423926783
 H   -0.6647611669   -3.6066908817    1.1077926429
 H    1.5012384494   -2.7406791876    0.7350218228