19

 C   -0.0256867132    1.5450511504    0.0548787669
 C    0.0293444204    0.0208324516    0.1113135282
 C    0.8104736725   -0.5265810161    1.2901890477
 O    1.3419663982    0.2342346883    2.1084003539
 C    0.9172317574   -1.9754598343    1.4322896164
 C    2.2387181760   -2.5147364208    2.0858555051
 O    3.2959681449   -1.6677317298    2.3327793118
 C    1.0022394015   -2.5263178453    2.8998348311
 O    0.8000092090   -1.6911431703    3.9758143254
 H    0.9784370382    1.9710670731   -0.0116515258
 H   -0.6001306491    1.8746948193   -0.8149910419
 H   -0.4937385981    1.9536999602    0.9538502996
 H   -0.9791326221   -0.4135098807    0.1544659934
 H    0.4769668800   -0.3960956478   -0.8016094130
 H    0.4291456889   -2.5874880327    0.6823807094
 H    2.5824589801   -3.4574839129    1.6712663113
 H    2.9351657347   -0.7799558633    2.4927079432
 H    0.4979653184   -3.4770374771    3.0435586888
 H    1.0776042623   -0.7972975817    3.7152331386