16

 C    0.0002794438    1.3723063746    0.0574642533
 C    1.4235384847    1.9358329457   -0.0307479379
 C    2.2018413121    1.2676819350   -1.1568451965
 N    2.8035831603   -0.0410909508   -0.8307597102
 C    1.6703298053    0.0146660557   -1.7622468118
 C    0.3544476732   -0.5422967508   -1.2567066250
 O   -0.0076556906   -0.0434134193    0.0149608636
 H   -0.4769927415    1.6547818055    1.0001014500
 H   -0.6143593999    1.7750830317   -0.7664403450
 H    1.3730335378    3.0182446617   -0.1941563888
 H    1.9490460935    1.7665426277    0.9143545495
 H    2.7765743562    1.9277121852   -1.8020245266
 H    3.6708203617   -0.1640753567   -1.3467184202
 H    1.8594803404   -0.1659147836   -2.8191904513
 H   -0.4311206501   -0.3061019599   -1.9972045950
 H    0.4089002431   -1.6310783317   -1.1538849679