16

 C    0.4542213736    0.9697851589    0.6249992001
 C   -0.2188622256    0.2996443142   -0.5860709850
 C   -1.5728488064   -0.2531039231   -0.2520968248
 N   -2.6580534443    0.2627187961   -0.6846852871
 C   -3.8630580062   -0.3249302093   -0.2875911941
 N   -4.9737043094    0.1443053792   -0.7096123532
 C   -3.7226159728   -1.4754347000    0.6190457278
 N   -2.6189409952   -1.9703318372    1.0360485163
 O   -1.4587128426   -1.3358717002    0.5688476156
 H    1.4349271658    1.3589554039    0.3396516824
 H   -0.1493464866    1.8044755814    0.9929857666
 H    0.5925030940    0.2571851052    1.4419718262
 H   -0.3603203891    1.0144979137   -1.3985645071
 H    0.4099048780   -0.5201428640   -0.9509092416
 H   -5.7527195518   -0.3951601654   -0.3272433482
 H   -4.6084662415   -1.9842446335    0.9943480161