20

 C    0.0953705719    1.1396640033    0.3784473251
 O   -0.1259502841    0.0342875375   -0.4809844137
 C   -1.3590655029   -0.5692261182   -0.2807686345
 C   -1.4396007254   -2.0527763416   -0.5535137094
 C   -0.2043760094   -2.7956589682   -1.0150983716
 C   -1.5425866312   -1.5253229546    0.8733622484
 O   -0.4654240956   -1.6648917712    1.7423546052
 C   -0.4966113134   -2.8761332465    2.4725571745
 H    1.0742502644    1.5510076324    0.1203527363
 H   -0.6664749539    1.9206448304    0.2311030155
 H    0.0930153240    0.8325460998    1.4306009847
 H   -2.2137836734    0.0569262616   -0.5472452248
 H   -2.3734322483   -2.3931927005   -0.9939752597
 H    0.6777813546   -2.4533432655   -0.4731020999
 H   -0.3156477120   -3.8738373526   -0.8586128568
 H   -0.0272008377   -2.6289541786   -2.0825210131
 H   -2.5183641905   -1.5599777695    1.3627414605
 H    0.3777449376   -2.8788322111    3.1277125914
 H   -1.4048510298   -2.9492824314    3.0900184371
 H   -0.4549214751   -3.7523307153    1.8115641949