17

 O    0.1216003758    1.3456386015    0.2054526171
 C    0.0473251874   -0.0658366039    0.0178762259
 C    0.6370637551   -0.7017037342    1.3182696012
 O   -0.1105134185   -1.8684545946    1.6076749090
 C   -1.3774571182   -1.7362350478    1.0175325280
 C   -2.1734318648   -0.4841848927    1.2636880694
 C   -1.3693388802   -0.6461217063   -0.0147562882
 C    0.7782245950   -0.4650937476   -1.1878937039
 C    1.3601041495   -0.7667994639   -2.1958705553
 H   -0.0971716962    1.7654392131   -0.6334163941
 H    1.6875471905   -0.9792571960    1.2176061266
 H    0.5420390658    0.0514842208    2.1109710230
 H   -1.8639942061   -2.6946416795    0.8837225198
 H   -3.2517458594   -0.5568967663    1.1739526424
 H   -1.8304393740    0.2332621170    2.0004103745
 H   -1.8643686040   -0.7413488691   -0.9729017524
 H    1.8859296822   -1.0402751004   -3.0773497430