18

 C    0.0073233146    1.5120991349   -0.1900857298
 C    0.0433343218   -0.0133985245   -0.0305875826
 O    0.8770895588   -0.2833475225    1.0799732816
 C   -1.3878149292   -0.5595181839    0.2329008844
 C   -1.3871703990   -2.0664978211    0.4608612780
 N   -2.4276673157   -2.7504071348   -0.0788261549
 O   -0.5215441262   -2.6265569134    1.1211135269
 C    0.5764023637   -0.6316282515   -1.2636393497
 C    1.0007519993   -1.1336239049   -2.2702852035
 H    1.0237759859    1.8833173385   -0.3372073032
 H   -0.6030850844    1.8061114575   -1.0478439767
 H   -0.3999273106    1.9628457590    0.7192304355
 H    0.7292236264   -1.2207875574    1.3007713771
 H   -1.7569125888   -0.0861697156    1.1500383799
 H   -2.0566065948   -0.2799561648   -0.5866232096
 H   -3.0756441301   -2.3208928900   -0.7148224779
 H   -2.4393251141   -3.7530224538    0.0210995654
 H    1.3956422624   -1.5812008118   -3.1487966109