19

 C   -0.0105427645    1.4616255020    0.0653232680
 C   -0.0147377698   -0.0434725310   -0.0344496546
 C    0.8114641175   -0.6718896672   -1.1790141363
 O    1.0741815913   -1.9899502344   -0.6745803392
 C    0.5223960156   -1.9768207222    0.6449457184
 O    0.6584684959   -0.6526612170    1.0928740010
 C   -1.0065602100   -2.1689663089    0.5060365964
 O   -1.6621059903   -2.4044543313    1.7393184612
 C   -1.3910518950   -0.7555897373    0.0033429770
 H    1.0131566541    1.8439448971    0.1096289584
 H   -0.5071455079    1.9029105573   -0.8044666179
 H   -0.5418646889    1.7865425600    0.9640368740
 H    0.2636427716   -0.7301608655   -2.1257932438
 H    1.7565816919   -0.1388435849   -1.3382530718
 H    1.0613797636   -2.6761584107    1.2857364165
 H   -1.2244449638   -2.9573527172   -0.2246584045
 H   -1.4464196663   -3.2967899595    2.0293741699
 H   -2.0439586249   -0.2885166399    0.7436914580
 H   -1.8961110702   -0.7602836194   -0.9649402408