18

 C   -0.0310728933    1.4638237208    0.0410551425
 C    0.0245109511   -0.0455946834   -0.0387306495
 C    0.3527575196   -0.6686857851   -1.3692203537
 C   -0.1839604692   -1.8918582338   -1.4023041832
 C   -0.8678213051   -2.1167068966   -0.0867109762
 C    0.0787239692   -2.1734320799    1.1439433488
 C   -0.6576855030   -1.0288210897    1.7586686356
 C    0.6907969696   -0.7651699450    1.1741497623
 N   -1.2818868389   -0.7286221426    0.3879536396
 H    0.9528227037    1.9013567577   -0.1618742714
 H   -0.7433510760    1.8578967534   -0.6898836524
 H   -0.3465808173    1.7873086018    1.0376648353
 H    0.9746927542   -0.2026566508   -2.1240560492
 H   -0.0879613610   -2.6309993886   -2.1877249522
 H   -1.6884411721   -2.8347894978   -0.0587968728
 H    0.5598614266   -3.0214670752    1.6149061458
 H   -1.1242684816   -0.8505062712    2.7161893060
 H    1.6317887935   -0.5576075640    1.6687757349