12

 O    0.0949032598    1.4141589533    0.0718707819
 C    0.0453674481    0.0156426592    0.0317536173
 C   -1.3952999588   -0.5267658473   -0.1445071520
 O   -1.0329403075   -1.0845029085   -1.4470520201
 C    0.2501850462   -0.6078941769   -1.3569465785
 N    1.2221950604   -0.6134899350   -2.1396968475
 C    0.8272814111   -0.6056052691    1.1097924879
 N    1.4452537876   -1.0836567163    1.9606715948
 H    0.9707677517    1.6887929528   -0.2290080797
 H   -1.7129991201   -1.3063652420    0.5478244938
 H   -2.1368126896    0.2672972796   -0.2403667100
 H    1.0115442411   -1.0662626899   -3.0299621980