17

 C   -0.0809321501    1.4898656862    0.0263360508
 C   -0.0282306270   -0.0133354233   -0.0104035300
 N   -0.0548350741   -0.6108226188   -1.2066607101
 C   -0.0071618685   -1.9421489415   -1.2153034622
 C    0.0668653193   -2.6910189572   -0.0473047242
 O    0.1121764620   -4.0481863241   -0.1376563140
 C    0.0899701141   -1.9824639813    1.1616844989
 C    0.1689926968   -2.6962953265    2.4854509004
 N    0.0420784652   -0.6501088675    1.1657773444
 H    0.8056793128    1.8925798406    0.5265845973
 H   -0.1366822123    1.8889731915   -0.9866955097
 H   -0.9504728806    1.8292607921    0.5983510655
 H   -0.0277918245   -2.4458627846   -2.1790660288
 H    0.1614329691   -4.4284993013    0.7451892656
 H    1.0810561558   -3.3021702135    2.5653365398
 H    0.1748531798   -1.9606645560    3.2900875267
 H   -0.6877791978   -3.3659534246    2.6365326694