21

 C    0.7923188536    1.4697849031   -0.3777267177
 C    0.2364172949    0.0832363176   -0.1379378542
 C    1.1570376028   -1.1003466419    0.0069029291
 C    0.3743259143   -0.6048987156    1.2053777947
 C    1.0166046835    0.0913025843    2.3837658115
 C    1.2995337173   -0.6508970967    3.7228926500
 C    2.4778506310   -1.4148205099    3.0763519407
 C    2.5485835279    0.0798174973    2.6788500248
 O    2.2399903108    0.4358567359    4.0824872455
 H    1.7428980945    1.6193302751    0.1434188727
 H    0.9716858574    1.6392426803   -1.4450116187
 H    0.1002991391    2.2452503316   -0.0304301475
 H   -0.6984575636   -0.1118821990   -0.6573575087
 H    0.8781171565   -2.0475008518   -0.4424431164
 H    2.2246297436   -0.9024998739   -0.0108753537
 H   -0.4785082295   -1.2193651106    1.4857750290
 H    0.5862307790    1.0786062812    2.5757842518
 H    0.5947798380   -0.9782700690    4.4889125028
 H    3.2513410471   -1.7378845396    3.7740047526
 H    2.2589899496   -2.1511495197    2.3021896197
 H    3.3545780123    0.6310372312    2.1917592119