16

 C    0.0302808746    1.5409534400   -0.0075910925
 N    0.0555341026    0.0820328590    0.0108122869
 C    0.7440350442   -0.6113161569   -1.0787906256
 C    2.2867148533   -0.5889288387   -0.8175437967
 C    2.4326773222   -0.0322254080    0.5589150562
 O    3.3504580611    0.4013904392    1.1991647840
 C    1.0180312181   -0.5693572615    0.9417253638
 C    1.3044912361   -1.6429907835   -0.1965319594
 O    1.2865029740   -2.9990185585   -0.2598257045
 H    1.0191030936    2.0054709118   -0.1555385457
 H   -0.6316986747    1.8746422447   -0.8125020906
 H   -0.3797835105    1.9016850770    0.9403291433
 H    0.3617613794   -0.6815472104   -2.0901369238
 H    3.0189424499   -0.7314666558   -1.5999058941
 H    0.7194652325   -0.7253868163    1.9761923577
 H    2.0743049535   -3.3483080421    0.1737045111