19

 C   -0.2700338284    1.3093893842    0.0736219064
 O    0.2190347291   -0.0158640620   -0.0682231660
 C    0.8100040970   -0.5030669399    1.0747239690
 C    2.2244965249   -0.1838392712    1.5616410292
 C    2.2276992388   -1.5837671368    2.2648663895
 C    1.7097803730   -1.4547067276    3.6973507239
 O    0.4087106181   -0.8662767274    3.5558338223
 C    0.0033583204   -1.0943823586    2.2223694991
 C    0.9503204767   -1.9694744950    1.4644799764
 H    0.5408108930    2.0199548675    0.2852267961
 H   -0.7389018597    1.5789709577   -0.8751071770
 H   -1.0133594602    1.3777131867    0.8796039889
 H    2.9255978627   -0.1552814115    0.7237042792
 H    2.3706229529    0.6940504502    2.2000975063
 H    3.1230614759   -2.1922556345    2.1480278196
 H    1.6332714106   -2.4356260763    4.1904457506
 H    2.3200185954   -0.7927642196    4.3206673413
 H   -1.0684779191   -1.1856923195    2.0927664255
 H    0.7218924290   -2.8899146764    0.9447510698