16

 N    0.1755163884    0.8002032224    0.1901043160
 H    0.5237644908    0.0872714141    0.8869488414
 H    0.9336047832    1.4261450014   -0.0848501320
 H   -0.2092569603    0.3444744616   -0.6372536249
 C   -0.8812346804    1.4697858206    1.0505610334
 C   -1.9603805520    0.4298892042    1.4743670307
 C   -1.3104987934    0.3746988848    2.8659459007
 O    0.1300191009    0.1062183928    2.6289857216
 C   -0.3450213669    1.4424906744    2.5023127640
 C   -2.0071964790    0.0584471896    4.2262538565
 O   -3.2076634162   -0.2014524513    4.0404781878
 O   -1.2709670415    0.1674832695    5.2085360534
 H   -1.1940366639    2.4068982618    0.5934489048
 H   -2.9514041513    0.8753537757    1.5504244938
 H   -2.0221550070   -0.5002148175    0.8993532851
 H    0.1252931286    2.2255168958    3.0841667679