14

 O    0.1993501640    1.4553216090   -0.3292916845
 C    0.0005371317    0.1082302175    0.0241634680
 C    0.1422089964   -0.3006396111    1.5303061294
 C   -1.1962273209   -1.0760188978    1.4080061106
 C   -1.5011066459   -0.2826452516    0.1099364536
 C    0.7710915930   -0.7822419580   -0.8588392891
 N    1.4060214361   -1.4642024024   -1.5435352487
 H    1.1461543810    1.6298902580   -0.3836871761
 H    1.0384607155   -0.8485669109    1.8253524510
 H    0.0424828143    0.6015538587    2.1386634210
 H   -1.0377573645   -2.1387727096    1.2119526311
 H   -1.9056396158   -0.9731691540    2.2297650768
 H   -2.0744753785    0.6267364916    0.3041344632
 H   -1.9310900066   -0.8106576494   -0.7416102664