15

 N    0.0998323052   -1.1050891744    0.0451110999
 C    0.0306799758    0.0476355937    0.0154803862
 C   -0.0934746154    1.4931655959   -0.0241514992
 C   -0.9997711105    2.1319854410    1.0379288338
 N   -1.0558569880    3.5504057953    0.6136905408
 C   -0.5893879576    3.5833024103   -0.7649520634
 C    0.7890197514    3.0192561063   -1.0334103631
 O    1.1943369191    2.1846770933    0.0573795602
 C   -0.4305897453    2.2032456929   -1.3662968119
 H   -1.9843565248    1.6452311712    1.0514689127
 H   -0.5387300797    2.0301587730    2.0244687698
 H   -2.0111514234    3.8861651402    0.6511868494
 H   -0.9256888841    4.4115423167   -1.3770299952
 H    1.5638635017    3.4678365383   -1.6426295866
 H   -0.8300692543    1.7663714762   -2.2702259234