18

 C   -0.2355322311    1.4240433407   -0.1423644790
 C    0.1818928918   -0.0355146341   -0.0922086137
 O    0.3816824025   -0.3991890388    1.2634708367
 C    0.7509936046   -1.7367754873    1.4403880267
 C    2.2343979607   -2.1259471931    1.1144728979
 C    2.3098649387   -2.7345493129    2.5242220334
 O    3.0717274153   -3.4824760678    3.0637148766
 C    0.9712419114   -2.1007451780    2.9306387751
 H    0.5401886823    2.0604736136    0.2926969687
 H   -0.4016070767    1.7370004036   -1.1773482513
 H   -1.1602869158    1.5779200920    0.4207397382
 H   -0.5933294734   -0.6780492203   -0.5420431558
 H    1.1070631946   -0.1935686894   -0.6697359721
 H    0.0377411302   -2.4097659869    0.9427434304
 H    2.4424393247   -2.7973992709    0.2783529481
 H    2.8684903143   -1.2359654140    1.0323237951
 H    1.1207375895   -1.1955210407    3.5290693665
 H    0.2441860064   -2.7452665657    3.4287652386