15

 N    0.0211638927    1.2983564139    0.1392279703
 C   -0.0069399429   -0.0638067794    0.0599637006
 N   -1.1574886391   -0.6846792019    0.0534793830
 N   -1.1106117069   -2.0358937413    0.0303756824
 C    0.0331336816   -2.7683414112    0.0139155688
 C    1.2467133334   -2.1502060069    0.0007243392
 O    2.4481108558   -2.8028938077   -0.0293815033
 C    1.3175339436   -0.7116690230    0.0083206498
 N    2.3715571155    0.0366840921   -0.0330341905
 H    0.9177913362    1.6981443413   -0.1011293050
 H   -0.8147602981    1.7969332146   -0.1156045086
 H   -2.0117818181   -2.4790277446    0.0398922150
 H   -0.0917091102   -3.8458355518    0.0057638606
 H    2.3037604866   -3.7539844970   -0.0517727084
 H    3.2115206600   -0.5398264770   -0.0761311839