17

 C    0.1067687182    0.9903615881    0.4900607418
 O   -0.1591767862   -0.0144554618   -0.4793004389
 C   -1.3683242299   -0.6565603339   -0.2886441719
 C   -1.4927615080   -2.0643674271   -0.7506454328
 C   -0.1777534456   -2.7991561978   -0.9788882546
 O    0.5135556616   -2.8304201557    0.2776250598
 C   -0.2413877292   -2.3237956064    1.2912501722
 O    0.1192703962   -2.3488827256    2.4335214143
 C   -1.5219582302   -1.7731251510    0.7401616996
 H    1.0700414442    1.4325250168    0.2295686408
 H   -0.6653252694    1.7729409022    0.4726106662
 H    0.1615313894    0.5643797270    1.4994657895
 H   -2.2468678175   -0.0176975659   -0.3945588174
 H   -2.3676561894   -2.3825315854   -1.3038329222
 H   -0.3510839590   -3.8303703388   -1.3022536058
 H    0.4663050251   -2.2959845091   -1.7045075561
 H   -2.3989398304   -1.8162173257    1.3715939555