18

 C   -0.4023124799    1.0179244740   -0.2127594926
 C    1.0366556869    1.1171765886    0.2377088268
 C    0.4325347438   -0.2319348217   -0.0150932856
 N    0.2161604392   -1.1159194100    1.0900108625
 C   -0.9657305393   -1.8525275151    1.1638291706
 C   -1.4542813557   -2.5734754899    2.2406163108
 N   -2.6059350416   -3.1613578803    1.8076456043
 N   -2.9007015764   -2.8807980618    0.5344232422
 C   -1.9101941478   -2.0831845508    0.1321420196
 H   -1.1733742339    1.2169166244    0.5227239171
 H   -0.6506368336    1.3209268382   -1.2241036548
 H    1.7816127313    1.4854466707   -0.4584527462
 H    1.2202037881    1.4010469679    1.2696062538
 H    0.7510335230   -0.7409896295   -0.9229308663
 H    0.5619240442   -0.7775254029    1.9738723277
 H   -1.0816879437   -2.7106081979    3.2428202080
 H   -3.2239271204   -3.7537944435    2.3339812396
 H   -1.9010809443   -1.6995636404   -0.8760386175