20

 C   -0.1057372369    1.5553905436   -0.1879699777
 C   -0.0139132418    0.0406404832   -0.0596944458
 C   -1.3618626923   -0.5895112103    0.2836967681
 C    0.6842709000   -0.6964743947   -1.2219363023
 N    2.0589358202   -0.1573341880   -1.3205326180
 C    1.7548440220   -1.2180767577   -0.3364537680
 C    1.1436391880   -0.5309475992    0.8981119106
 C    1.9687302479    0.3835680030    1.6598381991
 C    2.6399844691    1.1432329823    2.3071710134
 H    0.8561064597    1.9753003271   -0.4865017387
 H   -0.8559656335    1.8290176155   -0.9390184645
 H   -0.3997162576    2.0103088669    0.7637054578
 H   -2.1123285967   -0.3373404867   -0.4743267140
 H   -1.2942035932   -1.6818784145    0.3361434032
 H   -1.7276652754   -0.2255582357    1.2499010975
 H    0.2020164872   -1.1601250867   -2.0750428793
 H    2.5079415693   -0.6073934063   -2.1174262310
 H    2.2855895733   -2.1619940026   -0.3500168645
 H    0.7051994175   -1.2783645014    1.5671141159
 H    3.2426165030    1.8141492522    2.8673204381