20

 C    0.3580940475    1.1188425345    0.3630001028
 O   -0.3279021220    0.0666548966   -0.3009850013
 C    0.4148974000   -0.5362534762   -1.2923521104
 C    1.3990168859   -1.6658985902   -0.9283092965
 C    1.5594451289   -2.0480588940    0.4415666609
 N    1.7024138747   -2.3566999822    1.5484728593
 C    0.0735042518   -1.9397585876   -1.6697760367
 C   -1.0413444100   -2.6426318349   -0.9214240168
 C    0.2086360406   -2.3278055438   -3.1297910463
 H    1.2524696454    0.7498661579    0.8794784105
 H    0.6503300717    1.9087969419   -0.3438720596
 H   -0.3362336100    1.5330719005    1.0960237073
 H    0.7626539003    0.1386362679   -2.0777450124
 H    2.3096789036   -1.7319559217   -1.5154558842
 H   -1.1087674089   -2.3092395124    0.1141515895
 H   -2.0015855906   -2.4367441815   -1.4060452350
 H   -0.8832663780   -3.7259428381   -0.9295088635
 H    0.4199592742   -3.3979325538   -3.2292903299
 H   -0.7211792871   -2.1167226378   -3.6692647145
 H    1.0155454021   -1.7788124654   -3.6250961632