17

 O   -0.1191470191    1.3712585625    0.0377713234
 C    0.0422964050   -0.0209322329    0.0338991974
 C    0.7348101974   -0.7038122849   -1.1895216263
 C    0.5338067877   -2.1274847989   -0.5963545358
 C    1.1176033885   -1.9161004160    0.7927389882
 C    0.8221663259   -0.6702959760    1.1699427800
 C   -1.0354037653   -2.0996567664   -0.4790087293
 O   -1.5764413834   -1.8296898355    0.8176954638
 C   -1.3487144033   -0.7331938513   -0.0702322160
 H    0.7554324461    1.7737802559    0.0306074547
 H    0.1884437574   -0.5389705923   -2.1244025421
 H    1.7854789346   -0.4217274086   -1.3090567381
 H    0.9198345705   -2.9705702148   -1.1679924064
 H    1.5758144780   -2.6931281777    1.3904005504
 H    0.9727844962   -0.2066942675    2.1365138684
 H   -1.6463175122   -2.7138174766   -1.1330380650
 H   -2.2124356639   -0.1482157990   -0.3694850171