15

 C   -0.2113848856   -1.2307681256   -0.2796356511
 C   -0.0894381699   -0.0496134961   -0.0983374562
 C    0.0421350410    1.3855357778    0.0787899191
 N   -0.1022871301    1.9225661155    1.4858003017
 C    1.1056343570    2.7351095781    1.2855438664
 C    2.2956720480    1.8124424606    1.1848741234
 C    2.3946734117    0.5663487773    1.8996551509
 N    2.5312797526   -0.4166673014    2.4924430520
 C    1.4198916309    2.0662036354   -0.0356210236
 H   -0.2985223183   -2.2809917735   -0.4129681786
 H   -0.6445047836    1.9034202656   -0.6011489028
 H   -0.9390156683    2.4880668414    1.5747319865
 H    1.1906483388    3.7620199632    1.6186838318
 H    3.2444047024    2.3369776798    1.1079343225
 H    1.8532947833    2.4313068120   -0.9568950122