18

 C    0.1683686300    1.4490740836    0.4550841027
 C   -0.1308952806    0.0300951271    0.0290416205
 C    0.3653557329   -0.5946307278   -1.2588099290
 C    1.2195630038    0.1639316084   -2.2671952792
 C    2.0805904728   -0.7242868753   -3.0426680794
 C    2.7805014199   -1.4732793106   -3.6695196727
 N    0.8935063089   -0.9911588668    0.0275805388
 C    2.1800045957   -0.9196303062    0.5131833802
 O    2.4893148570   -0.4306543982    1.5752958513
 H    1.1191976575    1.8165979518    0.0649610380
 H   -0.6301712569    2.1163296254    0.1149607639
 H    0.2254220834    1.5049394937    1.5451200987
 H   -1.0967704929   -0.3349543420    0.3784901473
 H   -0.2748346022   -1.3431299166   -1.7242454143
 H    0.5512844883    0.7104673883   -2.9455968234
 H    1.8325812096    0.9170734356   -1.7610690036
 H    3.4052540838   -2.1269692244   -4.2264666531
 H    2.8978271690   -1.4328800760   -0.1540724567