16

 C    1.0421731164    0.9580010785    0.1961169470
 N    0.4653250322    0.1790841245   -0.9153112774
 C   -0.2904091244    0.3259089440    0.3354349022
 C   -0.5323356372   -0.9360342727    1.1500034594
 C    0.6259197987   -1.9626408797    1.1348668723
 O    1.1554674558   -1.9109466954    2.4857146609
 C    0.2864538319   -1.1358688694    3.1741261124
 N   -0.6845451222   -0.5794133810    2.5799099412
 H    1.9154049187    0.5100303529    0.6631322811
 H    1.0858307757    2.0403048855    0.1130608704
 H    0.0982230531    0.7977686402   -1.6324356812
 H   -1.1425826117    1.0020185085    0.3395340801
 H   -1.4628325908   -1.3926699628    0.7961773581
 H    0.2808618847   -2.9831031622    0.9479803266
 H    1.4199969679   -1.7203989536    0.4279986850
 H    0.5079806510   -1.0493316573    4.2325361720