20

 C    0.0435379824    1.5230304180   -0.2411650993
 C    0.0748454408    0.0227215525   -0.0517203851
 C    1.3850889040   -0.7274824891   -0.0315331009
 C    0.5588590721   -0.6158746771    1.2287482403
 C    1.0645251592    0.2135721275    2.4243028408
 C    0.8139381793   -0.6925222118    3.6042650695
 C    0.1660814933   -1.8052641216    3.2664456660
 C   -0.1443253544   -1.8653770586    1.7922785825
 H    0.9083552350    2.0045533384    0.2258244753
 H    0.0580460444    1.7830844769   -1.3054572978
 H   -0.8585837851    1.9665360714    0.1960957152
 H   -0.7504714923   -0.4990728971   -0.5330388217
 H    1.4433313400   -1.6927322056   -0.5256346282
 H    2.2989129211   -0.1420344881   -0.0901490402
 H    2.1244158493    0.4826799442    2.3278054054
 H    0.5205693165    1.1626944536    2.5374387188
 H    1.1229576515   -0.4292370905    4.6101008272
 H   -0.1338676029   -2.5879138458    3.9548597494
 H   -1.2298879194   -1.8443969245    1.6150730841
 H    0.2207084051   -2.7912384426    1.3279940789