19

 O    0.8009557288    0.4208071188   -0.7091032813
 C   -0.0464869504   -0.3015827199    0.1455774538
 C   -0.0334249300   -0.0280984087    1.6749538925
 C   -1.5669130075   -0.2756301769    1.6808327703
 C   -1.5755339478   -0.0259706517    0.1477025875
 N   -1.8713437602   -1.6656798742    1.9862869736
 C   -2.1988440572   -1.9654875594    3.3753088369
 C   -3.2575460795   -1.9640264189    2.3268095364
 H    0.6499709565    1.3595505894   -0.5554629252
 H    0.1532256103   -1.3556001769   -0.0575453639
 H    0.5818835611   -0.6650714179    2.3137176351
 H    0.1968603090    1.0229891681    1.8818361875
 H   -2.1678107651    0.4199127999    2.2885439001
 H   -1.7831715323    1.0257228742   -0.0791138751
 H   -2.2211134348   -0.6611995635   -0.4622726310
 H   -1.8073529743   -2.9005093217    3.7655651765
 H   -2.2056779870   -1.1410663470    4.0870121089
 H   -3.9680005151   -1.1386342973    2.3416735997
 H   -3.6528773044   -2.8979623565    1.9378263277