14

 O    0.0067457800    0.0552244496   -0.5820231011
 C    0.0350586661    1.1542229716   -0.1397784397
 O   -1.0054411019    1.8576102274    0.4609054933
 C   -0.1677123739    3.0409333414    0.6508162775
 C   -0.0315406984    3.4145199738    2.0546116755
 N    0.1160819457    3.7386059914    3.1534713958
 C    1.0053012783    2.2833028639    0.0184185337
 C    2.4532471039    2.1997126149    0.4168060075
 C    2.0792584597    2.7331120441   -0.9337449042
 H   -0.5591583909    3.8804290014    0.0704809867
 H    2.7895909702    2.8980060689    1.1755848858
 H    2.8783552950    1.2047429794    0.4843575658
 H    2.2443245746    2.1083034947   -1.8045559905
 H    2.1680477216    3.7996760075   -1.1092809161