18

 C    0.0290219152    1.5410644339   -0.0795234118
 C   -0.0244444042    0.0429528836    0.0746058567
 N    0.3552443539   -0.7628052121   -1.1906476815
 C   -0.8480263462   -1.5725502125   -0.9782679673
 C   -0.9132437802   -2.0577210407    0.5276229928
 C    0.2932795883   -1.8545198935    1.3690018951
 C    0.7756395377   -0.6211854695    1.1701261859
 C   -1.4244058303   -0.7133359760    0.0849825563
 O   -2.6844945465   -0.1860294783    0.2492276289
 H    1.0410106115    1.8651234839   -0.3466608032
 H   -0.6614162818    1.8852416386   -0.8563765139
 H   -0.2472888268    2.0376599267    0.8563652254
 H    0.1554259177   -0.1532948898   -1.9841392022
 H   -1.2863745838   -2.1840653455   -1.7577844127
 H   -1.6201754676   -2.8624569078    0.6951906651
 H    0.7313881563   -2.6246845659    1.9922489985
 H    1.6823682478   -0.2019637466    1.5883773670
 H   -2.8825018609   -0.1556025384    1.1930904309