17

 O   -0.1984090268    1.4451283309    0.0253497664
 N    0.0558262623    0.0644313047   -0.0286307673
 C   -1.0222285352   -0.5906894617   -0.0709648599
 C   -2.5059543095   -0.2993501715   -0.1169149884
 N   -2.7158138669   -1.7330469647   -0.4544865069
 C   -3.7525454262   -2.4599454945    0.2396731027
 C   -3.9908977738   -3.8209411240   -0.3982870173
 O   -4.3071863247   -4.8098476768    0.2081289364
 C   -1.2953293125   -2.0738144315   -0.1538462985
 H    0.6903207395    1.8167939178    0.0368207512
 H   -2.9094644017    0.0044564307    0.8616026736
 H   -2.8528887231    0.4078872554   -0.8774040046
 H   -3.5747053862   -2.5995013092    1.3210094852
 H   -4.6944480918   -1.9018508148    0.1316907502
 H   -3.8573803001   -3.8187284304   -1.5035375023
 H   -0.7830858803   -2.6410460234   -0.9374783177
 H   -1.1584630631   -2.5918105671    0.8089563870