19

 C   -0.1388395794    1.6454873687    0.1267629015
 C    0.0630697289    0.1469697935    0.0020462748
 O    1.2011550550   -0.2115977150   -0.8212985475
 C    1.8436650967   -0.9365471649    0.2527241786
 C    0.6950429280   -0.6054215357    1.1955004493
 C    0.7387202123   -0.1940070543    2.6335430023
 C    0.0333981115   -1.4675599606    2.2276076650
 C   -1.1876914055   -0.5644633148   -0.4956382454
 O   -2.3051966253   -0.2965500364   -0.1345609060
 H    0.7201885513    2.1117644180    0.6146024817
 H   -0.2613952572    2.0892215804   -0.8660612289
 H   -1.0445946031    1.8495630092    0.7043050633
 H    1.9734580363   -1.9986642689    0.0083471882
 H    2.8191571431   -0.5045301235    0.5099409089
 H    1.6904702939   -0.2735702820    3.1498755177
 H    0.1309089705    0.6492197447    2.9443489111
 H   -1.0513089973   -1.4785059421    2.2591156852
 H    0.5007680938   -2.4168091562    2.4696609293
 H   -0.9711985135   -1.3927874602   -1.2070154690