14

 N   -0.0915275776    1.3424185548   -0.1166584408
 C   -0.0005113163    0.0979197686    0.0768387799
 C   -1.2499845221   -0.7496447569    0.0774011113
 O   -1.1813904468   -1.9509972454    0.8542762381
 C    0.0039186754   -2.6104840180    0.9206902754
 N    0.0950592808   -3.8550036374    1.1140185205
 C    1.2532120383   -1.7626917008    0.9205587565
 O    1.1847112758   -0.5617537496    0.1430285446
 H    0.8381457954    1.7635681335   -0.1723123615
 H   -2.0802423128   -0.1630525780    0.4679231175
 H   -1.4770284985   -1.0221078034   -0.9623336985
 H   -0.8345712403   -4.2762921163    1.1693568734
 H    1.4795860046   -1.4896877592    1.9603012331
 H    2.0838193343   -2.3492570818    0.5307559804