17

 O   -0.2145332387    0.1995127181    0.4512084055
 C   -0.0552316366    1.3084867329    0.0527445697
 O   -0.9927270974    2.1522269600   -0.4828364667
 C    0.0038763452    3.2211801599   -0.6809432709
 C   -0.3619904923    4.4998792527    0.0520611394
 C    0.0316413138    4.4269921100    1.5277573281
 O    1.4111349803    4.1144519924    1.6340034076
 C    1.6841761413    2.7648417537    1.3198097243
 C    1.0913939871    2.3161399829   -0.0436002706
 H    0.1271859825    3.3857457389   -1.7535393609
 H    0.1817031707    5.3318927001   -0.4088838392
 H   -1.4333009688    4.6930925623   -0.0692505052
 H   -0.1085694559    5.3947265709    2.0158304226
 H   -0.5780096897    3.6839269705    2.0666839506
 H    2.7723361199    2.6749350149    1.3083288629
 H    1.3024032672    2.1027731106    2.1130247826
 H    1.8737718315    1.9980050992   -0.7339624998