21

 C   -0.8052717280    1.2295430430    0.3448287467
 C    0.0371379620    0.0005276739    0.0666555326
 C    0.6712677422   -0.1535171146   -1.3290994713
 C    2.0291412239   -0.1989410237   -0.5722989968
 C    2.8252903051   -1.5252156424   -0.5473393913
 C    4.1461974143   -1.2518701400   -1.3070167690
 C    4.2077070502    0.2561625744   -1.3473622059
 C    3.0705066838    0.8189001369   -0.9433864247
 O    1.3447930297    0.0715792365    0.6851571780
 H   -0.3012883230    2.1346462564   -0.0088163947
 H   -1.7762694437    1.1514341875   -0.1570953392
 H   -0.9843725853    1.3353679639    1.4195827203
 H   -0.4946570992   -0.9005179896    0.4048320690
 H    0.4119050097   -1.0517329257   -1.8924332688
 H    0.5490117658    0.7218427115   -1.9719190316
 H    3.0315663244   -1.7469282022    0.5039366108
 H    2.2596189243   -2.3666005132   -0.9558186081
 H    5.0193882629   -1.6963905260   -0.8157627501
 H    4.1259703151   -1.6657622448   -2.3242180173
 H    5.0823634489    0.7942190656   -1.6975903141
 H    2.8590703368    1.8816322224   -0.9027490744