14

 O   -0.0436025422    1.3861523861    0.0002923424
 C   -0.0368081315    0.0001990416    0.0121625983
 C    1.0375360605   -0.5779210902   -0.7500003922
 C    1.9246192549   -1.0861066565   -1.3809853165
 C   -0.4875569999   -0.7685428992    1.2147593452
 O   -1.4956596973    0.0215929985    1.8927174202
 C   -2.3667469627   -0.1504726044    0.7927016639
 N   -3.5674032946    0.1672776226    0.6640437889
 C   -1.3490637864   -0.8543780253   -0.0323133846
 H   -0.4680974326    1.6720486844    0.8207250199
 H    2.7151779738   -1.5216776989   -1.9412073256
 H    0.0566755001   -1.5007377169    1.7957131163
 H   -3.9303784488    0.6296981754    1.4987070700
 H   -1.5087602534   -1.6367695772   -0.7580281261