20

 C    0.1461238008    1.5841841349    0.2570861864
 C    0.0070994608    0.0814780600    0.0236225504
 O    0.9257327871   -0.6593344536    0.8259012836
 C   -1.4319034919   -0.4132727615    0.2381970602
 C   -1.6007192892   -1.8774772120   -0.1116633059
 C   -3.0283143703   -2.4625241000   -0.1593944594
 C   -2.7408463254   -2.6395072085   -1.6352240141
 N   -3.3784268009   -3.1001054697   -2.6114847718
 O   -1.4706798539   -2.1065786879   -1.5638351011
 H    1.1845874857    1.8945733035    0.1144935413
 H   -0.4852681329    2.1535771872   -0.4323101556
 H   -0.1544996624    1.8499688235    1.2790856451
 H    0.2961848091   -0.1528694089   -1.0072171041
 H    0.8019621979   -0.3847595438    1.7416577841
 H   -1.7115167967   -0.2693142289    1.2922985437
 H   -2.1271964593    0.1852402324   -0.3631274662
 H   -0.8637525238   -2.4888100583    0.4138446379
 H   -3.1898483608   -3.3911123899    0.3900607328
 H   -3.8338485620   -1.7604751808    0.0660703370
 H   -2.8251595118   -3.0512158877   -3.4689441743