22

 C   -0.1630006792    1.4458550012   -0.0349789042
 C    0.0333791115   -0.0653657894    0.0449654155
 C    1.2299817805   -0.5509603937   -0.7828512374
 C    2.1502424579   -0.4078130559    0.3682714141
 C    0.8633904941   -0.5280039889    1.2743122924
 C    1.0369267724   -2.0597265906    1.0802130987
 C    1.9527316609   -2.6696246161    2.1393340667
 C   -0.1727449023   -2.9569699173    0.8437412877
 N    1.8639056635   -1.7676151974   -0.1556156948
 H    0.7768127268    1.9792604583    0.1445613878
 H   -0.5328684993    1.7442398690   -1.0221291084
 H   -0.8928942863    1.7844213229    0.7081133586
 H   -0.9277178816   -0.5674708448   -0.1072816382
 H    1.4255678475   -0.4042623314   -1.8379256440
 H    3.1409285845    0.0105424918    0.4843957377
 H    0.6917771180   -0.0871837304    2.2568243820
 H    1.4051030819   -2.8222927761    3.0754503014
 H    2.3330567186   -3.6392375098    1.8030449758
 H    2.8105661180   -2.0239135895    2.3481246008
 H   -0.7701379138   -2.6394154789   -0.0126215421
 H    0.1585435288   -3.9826789612    0.6505919253
 H   -0.8207122223   -2.9746782718    1.7273513347