18

 C   -0.0576838212    0.6456962880    0.9684782861
 O   -0.2569088265   -0.1393608340   -0.2062011769
 C   -1.4816009151   -0.7838363453   -0.2458346036
 C   -1.5094092312   -1.9587106304   -1.1775389903
 O   -0.3104161833   -2.3119344725   -1.7988898807
 C   -1.6063541390   -2.2020919816    0.3212103406
 N   -0.4727062514   -2.8472463472    0.8903651163
 C   -0.1133492936   -2.7352472519    2.1930769780
 O   -0.7041334883   -2.0780487954    3.0269205644
 H    0.9708993125    1.0102413898    0.9320028713
 H   -0.7415669531    1.5058161593    0.9752187069
 H   -0.2172469946    0.0519133075    1.8744411508
 H   -2.3565299388   -0.1378662981   -0.1724554319
 H   -2.3804679099   -2.1407104167   -1.7992895333
 H    0.2974634645   -1.5727009346   -1.6556289181
 H   -2.5649143260   -2.4770364495    0.7505409187
 H    0.1293284279   -3.3422057574    0.2472065475
 H    0.7931747169   -3.3304186097    2.4216037241