18

 C   -0.0356784483    1.5206118719    0.0283607867
 C    0.0841364867    0.0305483094    0.0125025023
 N   -0.8744149115   -0.8728298046    0.6984167712
 C    0.5766098412   -0.9357086198    1.0162483770
 C    1.2906855180   -1.7780212445   -0.0665285826
 C    0.3575836693   -2.2060800718   -1.1861113150
 C    0.7507637795   -0.7766490245   -1.1436502769
 C    2.6785887251   -2.2051228543    0.0368683838
 O    3.3508816809   -2.1191536713    1.0419610369
 H    0.9077867365    1.9926061413   -0.2666372493
 H   -0.8134012740    1.8652263278   -0.6635080468
 H   -0.2897298101    1.8796988620    1.0311067836
 H   -1.3163516630   -0.3298005405    1.4397541925
 H    0.9604124616   -0.7826543015    2.0154233726
 H    0.8353335116   -2.7942243244   -1.9641162017
 H   -0.6482314947   -2.5026334304   -0.9186482988
 H    1.3558471778   -0.3068406150   -1.9087266387
 H    3.1015891933   -2.6153386597   -0.9099476767