19

 C   -1.3289817161    0.5111957255    0.1153617042
 C    0.1585039498    0.1715517679    0.0268343056
 C    0.8066319330    0.7563778825   -1.2203179435
 C    2.0912263108    0.6863686597   -1.5680526262
 C    3.1944082302   -0.0174017047   -0.8286515546
 O    2.7981086254   -0.6684466624    0.3625436525
 C    2.3746598020    0.2038833636    1.3836068663
 C    0.9287663698    0.7006049767    1.2403014657
 O    0.4610955150    1.4598574907    2.0525159963
 H   -1.4755952229    1.5930038972    0.1772368862
 H   -1.8588706355    0.1359532568   -0.7652656122
 H   -1.7804096728    0.0682015846    1.0063298730
 H    0.3003389061   -0.9161036079    0.0154016905
 H    0.1328496299    1.3235573232   -1.8584152357
 H    2.4135072435    1.1790094104   -2.4839494008
 H    3.6298667547   -0.7994707442   -1.4634637292
 H    4.0082360632    0.7007581859   -0.6169468864
 H    2.4306815591   -0.3534964146    2.3254370812
 H    3.0366941748    1.0779589793    1.4826662069