20

 C   -0.4291374042    1.1957483064   -0.1072378753
 C    0.2560970468   -0.1668185704    0.0245606570
 C    0.6816120919   -0.7312225003   -1.3227015043
 O    1.3311217084   -1.9838115276   -1.1068877764
 C    1.7618965283   -2.5793436491   -2.2976005159
 C    2.0661421759   -4.0519526913   -2.2134790833
 C    0.8055676935   -3.5756774662   -2.9056597507
 O   -0.4348608729   -3.7474533640   -2.2911174595
 H    0.2379246440    1.9353695448   -0.5634016443
 H   -1.3285248571    1.1321091531   -0.7294413584
 H   -0.7295553360    1.5794406185    0.8717646178
 H    1.1420667826   -0.0885851263    0.6647731979
 H   -0.4174548817   -0.8826710570    0.5106462776
 H   -0.1863509772   -0.8652884769   -1.9854394937
 H    1.3762791824   -0.0399200253   -1.8266708619
 H    2.3758161550   -1.9371612556   -2.9290014123
 H    2.8872437874   -4.4430392415   -2.8044293165
 H    1.9398107517   -4.5140552263   -1.2397570758
 H    0.7278198052   -3.6668589307   -3.9839033609
 H   -0.3576902341   -3.3372761343   -1.4190511509