18

 C    0.5764257484    1.2368982235    0.0073068778
 N   -0.1965900322    0.0088919370    0.0900832980
 C   -0.7184926091   -0.3780309566    1.2952499205
 O   -0.6167088104    0.2522986407    2.3278887496
 C   -0.3197407105   -0.7677687577   -1.1170927052
 C    0.9046072197   -1.6252496505   -1.6446963826
 C   -0.0484239690   -2.8225599318   -1.6991826032
 O   -0.4968505210   -3.0540884950   -0.3621585459
 C   -1.1664280895   -2.0482858711   -1.1281544366
 H    1.6155215077    1.0314126842   -0.2776449864
 H    0.1430524480    1.9179475192   -0.7353567445
 H    0.5580679296    1.7079129050    0.9897616549
 H   -1.2556905280   -1.3371397349    1.2323176506
 H   -0.6592030222   -0.1116817975   -1.9285090231
 H    1.2720931429   -1.2867838272   -2.6152545466
 H    1.7346644280   -1.7487511461   -0.9463634291
 H   -0.0652098182   -3.6612817425   -2.3842740959
 H   -2.2393235343   -2.1442754088   -1.2471042822