23

 C    0.1319352340    1.5099060367   -0.0768940414
 C    0.0153604562   -0.0150950545    0.0046972437
 C   -1.4302638298   -0.5272175764    0.0280204688
 C   -2.2526058185   -0.2087179508   -1.2509836093
 C   -3.2985743266   -1.3400226545   -1.3768748097
 C   -2.6480785155   -2.5350929409   -0.6951385896
 C   -3.4310162460   -3.7908105105   -0.4282121240
 O   -1.2777982999   -2.7172690458   -1.1089724366
 C   -1.5412547733   -2.0387220025    0.1324470344
 H    1.1794380958    1.8266797184   -0.0649385652
 H   -0.3203458506    1.8996327658   -0.9946456415
 H   -0.3704626943    1.9916646921    0.7699190906
 H    0.5321560967   -0.4766031472   -0.8458857508
 H    0.5324931015   -0.3684759949    0.9065853317
 H   -1.9403685791   -0.1035411089    0.9069010774
 H   -2.7133883207    0.7812498398   -1.2175201666
 H   -1.5853923002   -0.2305623662   -2.1170310722
 H   -4.2232803641   -1.0905428047   -0.8410358093
 H   -3.5726497530   -1.5480395375   -2.4166548170
 H   -3.7653263740   -4.2459286216   -1.3672794496
 H   -2.8179580520   -4.5229698836    0.1032637421
 H   -4.3208816121   -3.5743711306    0.1727288994
 H   -1.1969214447   -2.5581410019    1.0253899649