18

 O   -0.0134553535    1.4284895421    0.0432983329
 C    0.0333102022    0.0092610161   -0.0363610759
 C    0.8765037453   -0.5757625979    1.1161329525
 C    0.8322370268   -2.0952685609    1.1941223610
 O    0.0086883951   -2.6658371675    2.2211549822
 C   -0.4281869972   -2.7829586038    0.8714845880
 C   -1.6045554812   -1.9608062929    0.4099551656
 N   -1.9935526668   -0.7958345455    1.2236222822
 C   -1.3640974272   -0.5773479630   -0.0890375550
 H   -0.4854461871    1.6425707515    0.8570383930
 H    0.5257374902   -0.2003445706   -0.9943799012
 H    1.9048711990   -0.2226740213    1.0031544707
 H    0.4891564900   -0.1811384290    2.0603772058
 H    1.7707117140   -2.6271404123    1.0420372246
 H   -0.3971052499   -3.7961465829    0.4699897207
 H   -2.4031040906   -2.5282682702   -0.0609694839
 H   -2.9992684871   -0.6630687586    1.1685400154
 H   -1.9804183719   -0.2094674332   -0.9061737887