16

 O   -0.1384781987    1.4364288844   -0.0187718164
 C    0.0114472348    0.0712217027    0.0009022332
 C    0.6947636296   -0.8812707011    1.0656844718
 C   -0.6799655889   -1.5420975269    1.3135583809
 C   -1.2529853301   -0.8755860223    0.0239928795
 C   -0.7048523428   -1.5227090828   -1.2562075839
 O   -1.2133529544   -2.1419510285   -2.1446896298
 C    0.6874087984   -0.8749444806   -1.0792718735
 N    1.4247887190   -1.6193659609   -0.0086670646
 H    0.7293041653    1.8483564364   -0.0989989265
 H    1.2960704306   -0.5846179560    1.9262396495
 H   -0.6968143908   -2.6319328707    1.3780555585
 H   -1.1666846479   -1.1098800549    2.1923887052
 H   -2.2886367109   -0.5380664029    0.0212439170
 H    1.2530789606   -0.5869458489   -1.9667851227
 H    2.3984862162   -1.3303030271   -0.0210992581