15

 O   -0.0563361355   -0.0705315799   -0.0103465736
 C   -0.1092598914    1.1412645141    0.0322931166
 C    1.1075136596    1.9794639073   -0.0574074185
 N    2.0706755920    2.6120219447   -0.1452237113
 N   -1.2294075221    1.8741067244    0.2038487495
 C   -1.5571848231    3.3105376091    0.0661051215
 C   -3.0375348978    2.9062105002   -0.0416474884
 C   -3.2335612632    1.9009631980   -1.1486228481
 C   -2.6175405617    1.4510600666    0.1458946028
 H   -1.3182662086    3.8709869003    0.9741415166
 H   -1.1077972237    3.8026761966   -0.8018622685
 H   -3.8528089142    3.4386408430    0.4254950723
 H   -4.2606234284    1.5841958919   -1.2985609237
 H   -2.6310514410    1.9390177209   -2.0517445234
 H   -2.9905674710    0.6607327727    0.7826382761