22

 C   -0.5442797706    1.6341960756    0.0250013836
 O   -0.3561382592    0.2805331004    0.3800453801
 C   -1.4316268083   -0.5527973583    0.0410238880
 C   -1.5112841633   -1.2020065861   -1.3887390955
 C   -0.1785564692   -1.2404030367   -2.1301941045
 C   -1.8861490735   -2.5515570274   -0.6932976156
 C   -1.3702591411   -1.9611008053    0.6211422894
 C   -0.2957106975   -2.4600989512    1.5042047454
 N   -1.6983990851   -2.4016819396    1.9695376722
 H    0.3328335091    2.1856289357    0.3721076263
 H   -0.6382420888    1.7688924673   -1.0620531355
 H   -1.4424766077    2.0552643400    0.5028186625
 H   -2.3858428755   -0.0610994969    0.2949260540
 H   -2.2918443337   -0.7862029127   -2.0315361822
 H    0.6193072079   -1.6341167759   -1.4936678726
 H   -0.2531172902   -1.8800045011   -3.0160141664
 H    0.1278000001   -0.2431723225   -2.4615599745
 H   -2.9633023643   -2.7385707551   -0.6697177335
 H   -1.3793421317   -3.4453912801   -1.0657806314
 H    0.0959693153   -3.4647406663    1.3664272645
 H    0.4140071462   -1.7323375795    1.8862894405
 H   -1.8247818889   -1.5939304042    2.5765617651