23

 C   -0.1767708119    1.5945690993   -0.0260145943
 C    0.0591402699    0.0868258455    0.0616939712
 C    0.8596167185   -0.5637578224   -1.1255882650
 C    1.8987174814   -1.3740632819   -0.3239057343
 C    1.0304401034   -1.9432228249    0.8357431358
 C    0.9300608438   -0.4376440857    1.2336763238
 C    2.3954663423   -0.3078106010    0.7131691006
 C    3.4977376072   -0.7531464049    1.6721487686
 O    2.7289069143    0.9786832471    0.2163154908
 H    0.7598516468    2.1449432379   -0.1151063480
 H   -0.8024894067    1.8309773058   -0.8945177785
 H   -0.7054715659    1.9564654774    0.8635849301
 H   -0.9229622058   -0.3950722259    0.1405204920
 H    0.2356493930   -1.2021257039   -1.7576756488
 H    1.3324231742    0.1930915500   -1.7557517231
 H    2.6005190193   -1.9965336745   -0.8831910273
 H    0.0940189910   -2.4319883181    0.5555732914
 H    1.5713589987   -2.5706266916    1.5423255306
 H    0.6577292577   -0.1188871529    2.2416996311
 H    3.3169004055   -1.7241082622    2.1347394281
 H    4.4538758127   -0.8238282311    1.1363014131
 H    3.6152477251   -0.0100847471    2.4671919600
 H    3.6580582058    0.9695791453   -0.0358340680