20

 O   -0.6917941917    1.9049714037    0.1497482404
 C   -0.1018905396    0.6256078911    0.2218511276
 C   -1.1647958387   -0.4752061751    0.3150893405
 N   -2.0843502850   -0.3073980066   -0.8131186473
 C   -2.4856181884   -1.2063358856   -1.8537710726
 C   -3.0380710855   -2.6047336858   -1.4025844421
 C   -3.0873128379   -2.8390000025    0.0859248464
 C   -4.0802280956   -1.9076305618   -0.5414367166
 C   -3.4975189336   -0.5205824080   -0.9791267290
 H   -1.3708745343    1.8178104146   -0.5332662303
 H    0.5410771397    0.4290092359   -0.6527597677
 H    0.5354924844    0.6068013600    1.1128540091
 H   -0.6722338157   -1.4542445849    0.3049668407
 H   -1.7191571977   -0.3661596342    1.2536785545
 H   -2.2028465053   -1.0040471214   -2.8817784386
 H   -3.1956474568   -3.4054780422   -2.1131765674
 H   -3.5055784357   -3.8063645525    0.3516654055
 H   -2.3242508976   -2.5039321375    0.7718894593
 H   -5.1474178531   -2.0856866396   -0.5159539713
 H   -4.1346738320    0.3315183122   -1.1915953611