18

 O   -0.1291014290    0.0580812261    0.5010709046
 C   -0.0051763281    1.2103172224    0.1408380748
 N    1.1632310923    1.7976550707   -0.2285335050
 C    2.4428484029    1.1235612814   -0.2092704639
 C    3.1787144003    1.1272267055   -1.5948680780
 C    4.3780718215    1.9980552972   -1.1753783605
 C    4.8492013664    1.3478583008    0.1439879299
 C    3.4960397656    1.9507467787    0.5653859600
 O    3.7312968219    3.0489823848   -0.3772961415
 H   -0.8565778598    1.9162114034    0.0714685866
 H    1.1679057693    2.7715800662   -0.4924694457
 H    2.2726848692    0.1279823894    0.1994560364
 H    3.4674421901    0.1291437148   -1.9331390568
 H    2.5739209366    1.6005950162   -2.3709257149
 H    5.0560093361    2.3771467830   -1.9389760803
 H    4.9884643865    0.2646790431    0.1849519369
 H    5.6879417135    1.8805274968    0.5923088961
 H    3.2532723247    2.2708686697    1.5781814613