23

 C   -1.6370457225    1.0130608069   -0.7168218982
 C   -0.2144053007    0.6773326876   -0.2535746411
 C    0.5189531462   -0.3024762315   -1.1651745980
 C    1.0939076360    0.2569653269   -2.4607737768
 C    2.0071650991   -0.1237299078   -1.3223910154
 O    2.6245322941    0.8725232217   -0.5551049812
 C   -0.0747506653   -1.6874508875   -1.1886245120
 C    0.7083740373   -2.9514297354   -1.4423248951
 C    0.1724111239   -2.6624084404   -0.0622486223
 H   -1.6345576073    1.4372438835   -1.7268237961
 H   -2.2835018167    0.1297399836   -0.7293071478
 H   -2.0984861022    1.7460832255   -0.0475302140
 H    0.3751753653    1.5944175617   -0.1774089675
 H   -0.2505308856    0.2524467188    0.7575858215
 H    1.0880774104   -0.3678036355   -3.3478812440
 H    0.9561147787    1.3179362948   -2.6457978275
 H    2.6169681036   -1.0164188747   -1.4523068307
 H    3.2867973821    1.2994878219   -1.1079971428
 H   -1.0834836219   -1.7061150290   -1.5941228671
 H    0.2294492427   -3.7275978371   -2.0295125984
 H    1.7811340159   -2.8956989251   -1.5877015071
 H    0.8922338435   -2.3696885886    0.6952070313
 H   -0.6555896265   -3.2538058504    0.3128171805