23

 C    0.1005014540    1.6144247130   -0.0489553283
 C    0.0451509752    0.0862822680   -0.0186149924
 C    0.5880922600   -0.5563344424   -1.3219144511
 C    1.0110472053   -2.0176659148   -1.0962032854
 C    0.1602563305   -2.6782753315    0.0304070114
 C    1.1224802936   -1.9728477497    1.0312065052
 C    2.1943621910   -2.0437458837   -0.0955798432
 C    0.6969351983   -0.5145308568    1.2662283607
 O    1.7719680198    0.2561785228    1.7945282253
 H    1.1332571849    1.9726648718   -0.0829882002
 H   -0.4248270298    2.0016486512   -0.9286826398
 H   -0.3637147890    2.0481528583    0.8423432471
 H   -1.0126889662   -0.1970533160    0.0441580581
 H   -0.1842765811   -0.4907511483   -2.0974103665
 H    1.4506541666    0.0077817434   -1.7027708840
 H    1.1267028038   -2.5577065760   -2.0391636800
 H   -0.9097602178   -2.4605937039    0.0852223463
 H    0.3013140647   -3.7622354431    0.0483533561
 H    1.3490683844   -2.4657277941    1.9792665657
 H    2.7148226896   -3.0048580662   -0.0866525358
 H    2.9451435920   -1.2480595097   -0.1811933582
 H   -0.0568076641   -0.4845602893    2.0622298218
 H    2.5454710141    0.1122790170    1.2398050073