19

 C    0.0701333940    1.5443497782    0.0380370030
 C   -0.0394054458    0.0555898828   -0.0050400310
 C    0.8801644053   -1.0136689026   -0.5597782626
 C    0.4836219435   -1.0233014955    0.9204244263
 C   -0.7930655524   -1.8843352228    0.8489901035
 O   -1.4550909558   -2.0444912034    2.0570736353
 C   -0.5310321379   -3.0311390530   -0.1624330220
 C   -0.2622224531   -1.8721379565   -1.1535745197
 C   -1.2167595567   -0.9196331028   -0.3385303790
 H    1.0856926977    1.8501012116    0.3137148611
 H   -0.1583182299    1.9936538191   -0.9358380874
 H   -0.6171334425    1.9761060434    0.7749953481
 H    1.9087120440   -0.9250373608   -0.8873697929
 H    1.1959557057   -0.9548813299    1.7326564611
 H   -2.2742783118   -2.5227544572    1.8914413558
 H    0.2677405142   -3.7490090279    0.0482680204
 H   -1.4577761993   -3.5625101571   -0.4122289094
 H   -0.3237431992   -2.0031409586   -2.2321918892
 H   -2.2415195299   -0.6783992371   -0.6136350717