16

 C   -0.1203634954    1.4929661591    0.0427466168
 N   -0.0747015367    0.0415564527   -0.0411553455
 C   -1.1611142344   -0.7558343822   -0.0074244771
 C   -1.1499512110   -2.1331317856    0.0189315781
 C   -2.4152730823   -2.7513531510    0.0384488340
 N   -3.5665392980   -2.1297576806    0.0217246064
 C   -3.5630153251   -0.7595822423   -0.0209670730
 N   -4.5468157912    0.0363945838   -0.0630674358
 O   -2.3061635802   -0.0808756086   -0.0134738390
 H    0.8389560422    1.8887074906   -0.2954938356
 H   -0.9105042825    1.8784198125   -0.6026349022
 H   -0.3092782685    1.8440463557    1.0643476445
 H    0.8151822772   -0.4165427582    0.0589493383
 H   -0.2263826376   -2.6932246790    0.0275838450
 H   -2.4623890988   -3.8399809541    0.0709702765
 H   -5.3977946378   -0.5232815728   -0.0594230115