14

 O   -0.7609366384    1.2068098604    0.6974248620
 C    0.0319754367    1.0965616943   -0.2020829232
 C    1.3312525059    1.8591497857   -0.2067411045
 N    2.3005009188    1.4904169507   -1.2270992936
 C    1.7000600858    2.8474276749   -1.3048938066
 C    0.7703996041    3.0492525166   -2.4825923612
 O   -0.1561397804    2.3261680334   -2.7307202921
 C    2.5021234343    3.9859464320   -0.9507917193
 C    3.1654098839    4.9570923861   -0.6993767388
 H   -0.1067187695    0.4108916471   -1.0559800404
 H    1.6705207137    2.1524287744    0.7841415859
 H    3.2529377590    1.5689225924   -0.8769848583
 H    1.0153249520    3.9316455570   -3.1077677326
 H    3.7499837940    5.8121260551   -0.4619984874