21

 O    0.1288233710    1.4516432784    0.3579542912
 C    0.0280103857    0.0350757518    0.3833762710
 C   -1.2983313850   -0.4627080838   -0.2043553073
 C   -1.4285602150   -1.9686810823   -0.1527884035
 O   -0.4195071416   -2.5335048747   -0.9595777268
 C   -1.8320155274   -2.6686559695    1.1195794655
 C   -2.7604598532   -2.6791513644   -0.0862545278
 C   -4.0988776254   -1.9921614122   -0.0446462523
 O   -5.0179639352   -2.8735628716    0.5911018883
 H    0.1889582316    1.7232444828   -0.5633277085
 H    0.8674392164   -0.4429548021   -0.1377019297
 H    0.0941802667   -0.2489507347    1.4390501232
 H   -2.1194042580    0.0129896784    0.3386142988
 H   -1.3713714143   -0.1405232620   -1.2522663807
 H   -0.3978436658   -3.4836034244   -0.8106749497
 H   -1.3273063573   -3.5917711954    1.3889847067
 H   -2.1237165580   -2.0629020204    1.9722279231
 H   -2.7881552152   -3.6162803930   -0.6387869686
 H   -4.0242599430   -1.0416567441    0.5047784391
 H   -4.4284938447   -1.7526163426   -1.0685215020
 H   -5.8872381623   -2.4618508641    0.5709895998