17

 C   -0.0180470159    1.5058484663   -0.0895925781
 C   -0.0069062299    0.0161956895    0.0441534764
 N   -0.0315808059   -0.7570918597   -1.0470703694
 N   -0.0129111069   -2.0402408322   -0.5911606609
 C    0.0229695585   -2.0924422965    0.7531614661
 C    0.0281537440   -0.7888339911    1.2087988709
 C    0.0669612460   -0.8298845248    2.6703501626
 C    0.0844012299   -2.1161497278    3.0742871194
 C    0.0580068023   -3.0740163673    1.8844101384
 H    0.8759788240    1.9550620848    0.3574404456
 H   -0.0521425853    1.7836432641   -1.1451050096
 H   -0.8866126761    1.9467501008    0.4124365470
 H   -0.0270198453   -2.7876667456   -1.2632061510
 H    0.0796605347    0.0334748784    3.3231750155
 H    0.1132561297   -2.4676379867    4.0970895782
 H   -0.8182822222   -3.7346280607    1.9128555602
 H    0.9414592084   -3.7253888515    1.8663663687