18

 C    0.0839826406    1.6192800861    0.0077687984
 C    0.1005123442    0.0939781063    0.0745353448
 N    0.6436824225   -0.4763040011   -1.1678925107
 C   -0.3056440324   -0.5391689504   -2.3409684130
 C    0.5497805899   -1.2526799907   -3.3578513038
 C    1.1722647537   -2.2003338126   -2.6347312532
 C    0.6429219309   -1.9809410157   -1.2397293262
 C   -0.9061436975   -1.8149859468   -1.5917249838
 O   -1.9562420095   -2.2347975774   -1.2404808172
 H    1.0829538453    2.0056961901   -0.2119145410
 H   -0.5970147629    1.9792486833   -0.7702067236
 H   -0.2535310357    2.0378079198    0.9605527350
 H    0.7683237193   -0.2315039199    0.8804429287
 H   -0.9064030663   -0.2827106130    0.3241169806
 H   -0.8789728388    0.3455596765   -2.6061503062
 H    0.5630441945   -1.0673809386   -4.4213536697
 H    1.8300431371   -2.9965473467   -2.9492146849
 H    1.0249009850   -2.5433027295   -0.3903690542