16

 O    0.2133036444    1.3438432175    0.1480389477
 C    0.1181282892   -0.0026489127    0.0053650173
 C    0.3458091786   -0.8606521875   -1.0420833560
 C    0.0686152908   -2.1800569294   -0.5541047230
 C    0.1447776550   -3.4614701757   -1.3449386772
 C    1.4434774467   -3.6919405220   -1.9778533131
 C    2.5070065700   -3.8726468932   -2.5078105130
 C   -0.3127647376   -2.0668740835    0.7572365098
 N   -0.2816968750   -0.7232909674    1.0914462301
 H    0.5213655354    1.7131241733   -0.6848418557
 H    0.6846834222   -0.5946564559   -2.0313462136
 H   -0.0905248081   -4.3059786823   -0.6854791694
 H   -0.6281585801   -3.4702387106   -2.1269209579
 H    3.4493607165   -4.0360079908   -2.9682400944
 H   -0.6028016873   -2.8132748182    1.4781767037
 H   -0.4990530808   -0.3221035416    1.9865508746