20

 C    0.1228914950    1.3879045948    0.2247087652
 O   -0.0852679321    0.0161089049   -0.0222037888
 C    0.5985692326   -0.4951982074   -1.1600692663
 C    2.1093726649   -0.6203754134   -0.9504908423
 C   -0.0286245682   -1.8520053042   -1.4478321459
 C   -1.5110253868   -1.8697336944   -1.9183035651
 N   -1.0353314501   -2.4757677794   -3.1678996026
 C    0.2957902795   -2.4604937313   -2.8395629246
 O    1.2937778618   -2.7772762255   -3.4333960366
 H    1.1567831983    1.6133900270    0.5216981194
 H   -0.1237437368    2.0014804587   -0.6564155792
 H   -0.5414900449    1.6699597521    1.0454643619
 H    0.4076205699    0.1720886202   -2.0199432270
 H    2.5856987260    0.3579786207   -0.8439884013
 H    2.3148283261   -1.2048047168   -0.0476938690
 H    2.5581197428   -1.1320497971   -1.8066030335
 H    0.1754484929   -2.5414435182   -0.6241071617
 H   -2.1827620544   -2.5070307042   -1.3364584937
 H   -1.9573771247   -0.8783191085   -2.0399215378
 H   -1.5087988518   -2.7423547079   -4.0181983613