18

 O   -0.1572604295    1.3508260147    0.0504803794
 N    0.0194721261   -0.0458665916    0.0204191580
 C   -1.0996598713   -0.6467087579   -0.0302077091
 C   -2.4855903580   -0.0315106266   -0.0740078440
 C   -3.4448215254   -1.2329036548    0.0675063655
 C   -2.6363931696   -2.4100526952   -0.4609973176
 C   -3.1924112978   -3.7243774506   -0.7769968050
 O   -2.8792076102   -2.7955486452   -1.8214211716
 C   -1.1842742445   -2.1602938669   -0.0739409669
 H    0.7513033224    1.6682409726    0.0829729218
 H   -2.6082082230    0.7320597519    0.6981450048
 H   -2.6183207691    0.4767771373   -1.0365800355
 H   -3.6893371875   -1.4012020241    1.1230009762
 H   -4.3808886364   -1.1151200861   -0.4818668231
 H   -2.5567491204   -4.6083937210   -0.7313152393
 H   -4.2543921698   -3.9147808916   -0.6227268902
 H   -0.4853629346   -2.6095410312   -0.7820199175
 H   -0.9771367214   -2.5813470937    0.9185549142