18

 C    0.0604184482    1.4481847904   -0.0958348618
 O    1.5106238416    1.3961667159   -0.1691085417
 C    1.4842927655   -0.0206546020    0.0419378877
 C   -0.0363663155   -0.0675698012    0.0307482244
 C    0.7765509821   -0.7033550213   -1.0712180773
 C    0.7590842918   -0.4197275963   -2.5931306303
 C    0.7571443303   -1.9434830339   -2.8043127592
 N    1.9853133715   -2.4680820853   -2.1578615398
 C    0.7730517586   -2.1970997587   -1.3368076218
 H   -0.2576096011    1.9840501862    0.8056339309
 H   -0.3860693214    1.9164671887   -0.9815798054
 H    2.2431500797   -0.4571055363    0.6813367357
 H   -0.7393019048   -0.6162475013    0.6445040503
 H   -0.1688356491    0.0574313114   -2.9201365434
 H    1.6199217128    0.1138515599   -3.0010720074
 H    0.2672604439   -2.4973380780   -3.5951745827
 H    2.0007046128   -3.4738478778   -2.3317199987
 H    0.3048800631   -2.9794036704   -0.7514747296