18

 C    1.0416684595    1.1646321482   -0.3559535454
 N    0.1169262123    0.0890296687    0.0018761345
 C   -0.0046066827   -0.9643464549   -1.0171403374
 C    1.0709371447   -2.0449019574   -0.7047988324
 C    2.3395120451   -1.8462052467   -1.3854745027
 C    3.3915204515   -1.6732067623   -1.9421955196
 C    1.2366995561   -1.8819994864    0.8405583816
 O    1.8112998405   -2.6333760888    1.5748911335
 C    0.4787778336   -0.6023839721    1.2338855855
 H    2.0882444525    0.8430127415   -0.4826840757
 H    0.7116611289    1.6226589175   -1.2928366591
 H    1.0096852101    1.9359786552    0.4195618677
 H   -0.9968867483   -1.4255957842   -0.9357788460
 H    0.0948182105   -0.5461132457   -2.0191101415
 H    0.7072981382   -3.0601638995   -0.8974303891
 H    4.3200256878   -1.5300374135   -2.4371723256
 H    1.0776301737    0.0166157918    1.9059230135
 H   -0.4176601441   -0.9154417813    1.7905291982