22

 C   -0.1919133060    1.3217685448   -0.0802296588
 C    0.0355684921   -0.1718777700    0.0163638439
 C    1.4468969622   -0.6661140323   -0.1798111588
 C    0.8148606146   -0.6686824613    1.2086012758
 C    0.9745937094   -2.2261266979    1.2611352384
 C    1.3106918788   -2.9491920365    2.5281539139
 C    1.5605360220   -2.2129782433   -0.1027617562
 N    0.2169466572   -2.7989687998    0.1245216332
 C    0.1897057938   -4.2532449317    0.0388653162
 H    0.6626814851    1.8866384686    0.3088761764
 H   -0.3469924073    1.6287728366   -1.1202990668
 H   -1.0763271490    1.6217611892    0.4924842784
 H   -0.7719296408   -0.7927425894   -0.3530296285
 H    2.2404742615   -0.0309437234   -0.5535407929
 H    1.0516997507   -0.0321713515    2.0532840449
 H    0.4656067689   -2.9205226461    3.2277396183
 H    1.5721853016   -3.9956511709    2.3554334921
 H    2.1625059821   -2.4710326201    3.0240878248
 H    2.3490155569   -2.8196072481   -0.5325132139
 H    1.1315739805   -4.7538799641    0.3172654894
 H   -0.6041655569   -4.6413637492    0.6854428044
 H   -0.0443481975   -4.5348034637   -0.9930229940