20

 C    0.1648009243    1.5818614923    0.0844890957
 C    0.0156289359    0.0664295146    0.0525375207
 C    0.4124987453   -0.5187037706   -1.3073719728
 N    0.1829976218   -1.9341474665   -1.5437836026
 C    0.5494824879   -2.8527527313   -0.7574433879
 C    0.4600143117   -4.3013989213   -1.1471076666
 O    1.1195964491   -2.7327770020    0.4907268298
 C    0.5923313254   -1.7794746584    1.4047719453
 O    0.8427343601   -0.4554033654    1.0943682705
 H    1.1967495748    1.8709288891   -0.1373721099
 H   -0.4934600993    2.0498412379   -0.6526980251
 H   -0.0917113834    1.9657908351    1.0748836138
 H   -1.0305580322   -0.2105064324    0.2652713828
 H   -0.1313647356    0.0319682703   -2.0832034335
 H    1.4814013982   -0.3071750514   -1.4576686862
 H    1.4482528975   -4.7658625206   -1.0631691829
 H   -0.2035650178   -4.8420776662   -0.4638026219
 H    0.0951419447   -4.3935865231   -2.1690088295
 H   -0.4916873261   -1.9571977273    1.5012525680
 H    1.1016608875   -1.9905579629    2.3467018324