14

 C    0.0243712093    1.3769101966    0.0499144605
 O   -0.2396149379   -0.0161925992   -0.1362236363
 C    0.4938189832   -0.6346895116   -1.0556238779
 N    0.3805353704   -1.8912775605   -1.2119237186
 C    1.0888685614   -2.4788079304   -2.2424012508
 N    1.3879427100   -1.9145157878   -3.3916603260
 O    2.0583374108   -2.8681094828   -4.1086693758
 N    2.1720400620   -4.0372177438   -3.4052067694
 C    1.5784835425   -3.8200144862   -2.2683596437
 H    1.0022672097    1.5290408663    0.5186544701
 H   -0.0181682760    1.9173601594   -0.9015271252
 H   -0.7574048945    1.7470892566    0.7125970647
 H    1.1698781086    0.0020888976   -1.6394744874
 H    1.5111499606   -4.5805919242   -1.5068551042