18

 C   -0.0044642498    1.3853788334    0.0560355343
 O   -0.0033241587   -0.0214426353   -0.0060362566
 C    0.6054452573   -0.5130404611   -1.1753906766
 C    0.5374834837   -2.0257159375   -1.1514886938
 O   -0.7820765720   -2.4912188571   -1.4323159788
 C   -0.6250550564   -3.7347741408   -2.0472011656
 O    0.6076810309   -3.6845334787   -2.7764051678
 C    1.3662291285   -2.6894591767   -2.2378215280
 N    2.5356825221   -2.3665335337   -2.5774450037
 H    1.0175169637    1.7959249127    0.0388567970
 H   -0.5668562645    1.8303601386   -0.7797922128
 H   -0.4845728843    1.6693417603    0.9953314350
 H    0.0964074201   -0.1414545987   -2.0792256208
 H    1.6649523006   -0.2203833889   -1.2364007857
 H    0.8673582615   -2.3800815590   -0.1620148637
 H   -0.5603144113   -4.5560426038   -1.3153069310
 H   -1.4474078458   -3.9059365717   -2.7460835083
 H    2.8840498646   -2.9695284220   -3.3238964531