15

 C    0.0110604512    1.5122281002   -0.0450665308
 C    1.5137804613    1.9494532861   -0.0285358036
 C    2.1667469614    0.7835466751    0.6528431948
 C    3.2791237154    0.3304275046    1.2753867813
 O    3.1021539622   -0.9578386401    1.6480342892
 N    1.8222015197   -1.3876326587    1.2595587998
 C    1.3012623918   -0.3427439995    0.6784571569
 C   -0.0128197409   -0.0474395451    0.0156620994
 H   -0.4801091292    1.9076312153    0.8496170951
 H   -0.5270247130    1.9046374872   -0.9110730830
 H    1.8967300900    2.0734093574   -1.0492607612
 H    1.6545743528    2.9060075589    0.4821302912
 H    4.2357255287    0.7551904196    1.5374656779
 H   -0.8768216201   -0.4377653319    0.5583737575
 H   -0.0356991513   -0.4852509392   -0.9895613445