19

 C   -0.2964473812    1.5436530980    0.0221957801
 C    0.0011183378    0.0714133636   -0.0024888288
 C   -0.1090860984   -0.6600737523   -1.1232373671
 C    0.1163570350   -2.1188541696   -1.1840200609
 O   -0.2677982091   -2.7838533408   -2.1299161646
 C    0.8288767191   -2.7378323317   -0.0291053761
 C    2.1863544592   -2.1644207108    0.3617874300
 C    1.0008428926   -1.9237053855    1.2414544114
 C    0.3738542867   -0.5457565224    1.3243972359
 H    0.5928883531    2.1152408107    0.3165101840
 H   -0.6334267384    1.9067549454   -0.9512718694
 H   -1.0710528931    1.7732620996    0.7650473467
 H   -0.4410805311   -0.2081456214   -2.0536466184
 H    0.7061371894   -3.8124015971    0.0386534893
 H    2.9390686825   -2.8717049338    0.6903079739
 H    2.5665210839   -1.3402371450   -0.2321360799
 H    0.9712754946   -2.4868231245    2.1690441534
 H    1.0464803209    0.1366551096    1.8629616551
 H   -0.5382577136   -0.5892007820    1.9383906455