17

 C   -0.0775915242    1.5697269865    0.0506165489
 C    0.0207599080    0.0344071417    0.0354172356
 C    0.8045165302   -0.5224154738   -1.1526804715
 C    1.8529510855   -1.2808450337   -0.7748857183
 C    1.8927968649   -1.3267696423    0.6816093427
 C    2.5294324654   -1.7922178305    1.8095852664
 N    1.8166442448   -1.2826964144    2.8603179787
 N    0.7564646070   -0.5167014719    2.4919273755
 C    0.8135406456   -0.5529034203    1.1729985949
 H    0.9190449926    2.0204462020    0.0532191168
 H   -0.6169976075    1.9345388459   -0.8292286811
 H   -0.6084088608    1.9090792368    0.9444705233
 H   -0.9989922231   -0.3766626754    0.0247994347
 H    0.5231037946   -0.3039981281   -2.1758681405
 H    2.5478256064   -1.7747450494   -1.4422073627
 H    3.3921256185   -2.4182708133    1.9726402107
 H    1.9966207520   -1.4176145497    3.8403151461