16

 N   -0.1076756698    1.4257277792   -0.2013458943
 C    0.0409349197    0.1260527509    0.1788166635
 O    1.0828504094   -0.3101812424    0.6316828741
 C   -1.2029471599   -0.7259752054    0.0040488642
 C   -1.6924305366   -1.0594033498   -1.4300313258
 O   -1.7263753769   -2.4625011895   -1.1267602035
 C   -1.0694409265   -2.2679490291    0.1348801286
 C    0.3412695182   -2.8545583765    0.1699326551
 O    0.8872454662   -3.3039413770   -0.8014851022
 H    0.6938205868    2.0334266143   -0.1512986067
 H   -0.9542157988    1.7763335268   -0.6139614486
 H   -2.0068970503   -0.3276301678    0.6287000551
 H   -2.6771047932   -0.6718551350   -1.7140667546
 H   -0.9656171709   -0.8287846417   -2.2190625422
 H   -1.6404985521   -2.7058997999    0.9659690585
 H    0.7951648847   -2.8849242672    1.1806535288