17

 O    0.0989199296    0.1215971811    0.0166520454
 C    0.0522366967    1.3175616517    0.1197088632
 C   -1.1154123943    2.1503163184    0.6492668587
 C   -0.8350129512    3.5793452024    0.1561913533
 C    0.6973631905    3.6835061212    0.0839311900
 O    1.2638226265    3.9127566261    1.3776065181
 C    2.1500581737    2.8535792781    1.6950740058
 O    2.3712087986    2.1063380374    0.5211563562
 C    1.2114194174    2.2811932153   -0.2732233069
 H   -2.0745570632    1.7309572355    0.3390527275
 H   -1.0799590714    2.1008479038    1.7454446412
 H   -1.2484437817    3.7268005989   -0.8483094425
 H   -1.2500931548    4.3555774025    0.8017767212
 H    1.0351626676    4.4704171320   -0.5982584868
 H    3.1122874283    3.2519727859    2.0360629943
 H    1.7046424575    2.2268375355    2.4862701118
 H    1.4878259902    2.1320897442   -1.3197748505