15

 O    0.0096544376    1.3540685994    0.0318773319
 C    0.0534337081    0.0061295089    0.0736710388
 N    0.2658657597   -0.7287899549   -1.0177205788
 N    0.2190423307   -2.0267479911   -0.5992102632
 C    0.0199802321   -2.1029248443    0.7371991038
 C   -0.1064619331   -0.8246414298    1.1981841643
 O   -0.3886564916   -0.7197949924    2.5320226131
 C   -0.2023173549   -2.0654184355    3.0464555111
 C   -0.2276056328   -3.0771370585    1.8453741692
 H    0.1536595405    1.6092525262   -0.8881264158
 H    0.4347788874   -2.7514964218   -1.2593144978
 H    0.7727361641   -2.1047620120    3.5462563485
 H   -0.9866749340   -2.2515091352    3.7824244713
 H   -1.1968701870   -3.5827638290    1.7485246047
 H    0.5373984432   -3.8494571798    1.9697129692