17

 C    0.0968233266    1.5331670955    0.1262101816
 C    0.0607775895    0.0058400617    0.0496603554
 C    0.5946401935   -0.5250063615   -1.2955658589
 C    0.6009987107   -2.0050006509   -1.3866219700
 C   -0.0210913574   -2.8962036251   -2.1555870336
 O    0.3614691787   -4.1731610183   -1.7833647921
 C    1.2460842444   -4.0448037959   -0.7495521797
 O    1.7845297014   -4.9332987968   -0.1733551339
 O    1.4029534714   -2.7084422031   -0.4946553932
 H    1.1186138894    1.9120583228    0.0141837403
 H   -0.5133559973    1.9866196112   -0.6628971710
 H   -0.2857549443    1.8873775942    1.0877376402
 H    0.6562652265   -0.4251410585    0.8616723247
 H   -0.9647347641   -0.3550743290    0.1913853575
 H   -0.0122128894   -0.1386686356   -2.1221532008
 H    1.6155142415   -0.1514058684   -1.4520288312
 H   -0.7210050010   -2.8086309724   -2.9671459553