25

 C   -0.1849780770    0.9836861254    0.7178429624
 C   -0.0829508028   -0.4242098422    0.1146664595
 C   -1.4849691750   -1.0353052863   -0.0401271670
 C    0.6430068643   -0.4749855129   -1.2446593272
 C    2.1647370934   -0.1415341377   -1.3147879091
 C    2.9633550226   -0.9199509236   -0.2449937902
 C    2.6717676539   -0.5564091744   -2.7195856352
 C    2.4188310120    1.2970722930   -1.1642521724
 C    2.6769513535    2.4696274824   -1.0875253511
 H    0.7944288746    1.4244678037    0.9120571500
 H   -0.7190185104    1.6597057150    0.0395169031
 H   -0.7396062934    0.9539007683    1.6621257584
 H    0.4697378192   -1.0571588240    0.8215351610
 H   -2.0911065313   -0.4520212517   -0.7438086859
 H   -1.4383697345   -2.0635745143   -0.4144535532
 H   -2.0145696961   -1.0499011594    0.9181180112
 H    0.5385940082   -1.4955470275   -1.6364141520
 H    0.1187652559    0.1786666851   -1.9539299340
 H    2.7571869512   -1.9927041430   -0.3280664776
 H    4.0370203936   -0.7651034967   -0.3837527822
 H    2.7072848773   -0.5967323648    0.7664231469
 H    2.1022428881   -0.0507488340   -3.5045685872
 H    3.7263267199   -0.2955342428   -2.8436216402
 H    2.5631579997   -1.6376230754   -2.8555909304
 H    2.8848497429    3.5076932377   -1.0053798775