17

 O   -0.0410792306    1.4346449010    0.2208116085
 C    0.0425856121    0.0329311925    0.0930745494
 C    0.6070785821   -0.5403236516    1.4150144880
 C   -0.6293115187   -0.8322744181    2.2221400317
 C   -1.7317827033   -0.8232888604    1.4589608633
 C   -3.1028195212   -1.0056530158    1.9138947398
 O   -4.0692780874   -0.8691358404    1.1827450015
 C   -1.3857185335   -0.5742553468    0.0005949432
 O   -2.2462532090    0.3293667881   -0.6663989201
 H   -0.8719611948    1.6853253108   -0.2092396497
 H    0.6577670904   -0.2428452996   -0.7743862087
 H    1.1856562050   -1.4596856144    1.2483276861
 H    1.2759773583    0.1793807780    1.8964047010
 H   -0.6161651282   -1.0287316395    3.2900983269
 H   -3.2355430678   -1.2618263662    2.9854920639
 H   -1.3534367876   -1.5347068299   -0.5393960900
 H   -3.1456304058    0.1121741424   -0.3773640349