9

 N   -0.1135881552   -1.1753733295   -0.0031484004
 C   -0.0475505769   -0.0233447608    0.0023860551
 C    0.0146020159    1.4433665940    0.0096495541
 C    1.3795632561    1.9562519828   -0.0006100901
 C    2.5012819538    2.3970922720   -0.0089396084
 C    3.7716611024    2.9002072204   -0.0183521419
 N    4.8496303847    3.3310513638   -0.0263205498
 H   -0.5331749757    1.8236046417   -0.8623704334
 H   -0.5164223151    1.8141870956    0.8959703449