23

 C    0.1323808357    1.2225819407    0.2666663310
 O   -0.3135330213   -0.0167224801   -0.2345069004
 C    0.5168664959   -0.5406777988   -1.2351833187
 C    1.8779457657   -1.1805407244   -0.8347861992
 C    1.5636910138   -2.3366102832   -1.8273422120
 C    1.9413386930   -3.7566075449   -1.4298172694
 C    1.4843073663   -4.8023315963   -2.4396893021
 O    1.8955979686   -6.0770460336   -1.9677879006
 C    0.0661976044   -1.9065435875   -1.7829446037
 H    1.1239428260    1.1450350198    0.7377778222
 H    0.1885185015    1.9859996854   -0.5259462192
 H   -0.5889041798    1.5493099516    1.0197119640
 H    0.6541133897    0.1974751113   -2.0421243808
 H    2.7954285497   -0.6065922909   -0.9849248063
 H    1.8342124648   -1.5299449738    0.2021450163
 H    1.9872700103   -2.1031324021   -2.8116980803
 H    3.0296829032   -3.8383771416   -1.3152439585
 H    1.5039798701   -3.9994581196   -0.4533173471
 H    0.3893068478   -4.7556094335   -2.5560184854
 H    1.9248980956   -4.5819189547   -3.4265545059
 H    1.5861321346   -6.7420164304   -2.5894763557
 H   -0.4775196504   -2.4504925000   -1.0038045979
 H   -0.5172832654   -1.9227531331   -2.7060768102