22

 C    0.0007011121    1.5992674595    0.0800673024
 C    0.0030765454    0.0724968534   -0.0327190313
 C   -1.3980348218   -0.5421056677    0.0568784440
 C   -1.3965483966   -2.0696188662   -0.0558812939
 C   -2.7953662499   -2.6780299461    0.0339693455
 C   -2.8203677105   -4.1979577607   -0.0757654376
 C   -4.1886447444   -4.8548069952    0.0084867244
 O   -1.8104667594   -4.8480053847   -0.2216214194
 H    1.0140627198    2.0072821423    0.0125756888
 H   -0.5950779242    2.0547743727   -0.7189823645
 H   -0.4261752004    1.9254503277    1.0352118215
 H    0.4671354772   -0.2252113519   -0.9822075782
 H    0.6346853409   -0.3534965037    0.7579199631
 H   -1.8637724488   -0.2436460847    1.0071379109
 H   -2.0314275972   -0.1152804649   -0.7340808020
 H   -0.9345729624   -2.3751665377   -1.0017864148
 H   -0.7677472767   -2.5028642082    0.7305263803
 H   -3.2856884223   -2.4003106768    0.9786599281
 H   -3.4521011885   -2.2728705196   -0.7499570814
 H   -4.8433375108   -4.4785794004   -0.7857035860
 H   -4.0867173292   -5.9368396936   -0.0822060637
 H   -4.6729602724   -4.6090231635    0.9603106437