16

 C    0.2514414538    1.2705236256   -0.8402726108
 C    0.0897514356   -0.0645559441   -0.2808519259
 C   -0.0209136544   -1.1662016914    0.1925630589
 C   -0.1736772487   -2.5039346542    0.7578988994
 C   -1.4774831725   -3.1582471931    0.3964873697
 N   -1.8800273677   -4.3617285385    0.7679764750
 C   -3.1049583505   -4.4636321438    0.1810005040
 N   -3.4853495811   -3.4108651780   -0.5243664169
 N   -2.4229381262   -2.5842237845   -0.3714037890
 H    1.2119087473    1.7049264821   -0.5429423425
 H    0.2213158988    1.2512149411   -1.9349678566
 H   -0.5385663057    1.9463588837   -0.4956371154
 H    0.6444409131   -3.1553806654    0.4255815299
 H   -0.0958577935   -2.4681034535    1.8518759509
 H   -3.7324800167   -5.3372127131    0.2765412580
 H   -2.4028816717   -1.6729822730   -0.8005196988