17

 C   -0.0185395615    1.4874656694   -0.0159067187
 N   -0.0047963932    0.0261403528    0.0215317331
 C    0.0007945236   -0.6152940472    1.2629331101
 N   -0.0059114403    0.0383887530    2.3524487339
 C    0.0036484313   -0.7720341778   -1.1242231959
 O    0.0150831654   -1.9807590889   -1.0742831592
 C   -0.0024059222    0.0014416029   -2.4515904536
 C    0.0052934630   -0.8652459474   -3.6179185743
 C    0.0113581840   -1.5502217174   -4.6031190112
 H    0.8691533177    1.8819288715   -0.5188264536
 H   -0.9125866116    1.8650869162   -0.5204664105
 H   -0.0227219998    1.8317593557    1.0171272133
 H    0.0111546013   -1.6982648542    1.1476620776
 H   -0.0001706096   -0.6021358296    3.1433449382
 H   -0.8806347971    0.6595677422   -2.4749307644
 H    0.8649965558    0.6738705006   -2.4740142974
 H    0.0168896431   -2.1707388220   -5.4647314275