9

 O   -0.1510671272    1.2889107243    0.0105877530
 N    1.2416775576    1.7664190141   -0.0005991209
 N    2.0153855800    0.7810990811   -0.0130333365
 N    1.2723763165   -0.3336786187   -0.0117830498
 N    1.4695841887   -1.6742448199   -0.0205060005
 C    0.1994122283   -2.0760878912   -0.0110133007
 N   -0.7861180008   -1.1082466973    0.0041244351
 C   -0.0469089644   -0.0301347576    0.0025192854
 H   -0.0411393187   -3.1289210348   -0.0141100750