17

 O   -0.0543992041    1.3513713177   -0.0843882630
 C   -0.0260894092   -0.0596913388    0.0421831225
 C   -1.4076005542   -0.6259795190    0.1535613270
 O   -2.3333929774   -0.3191964191   -0.9882361290
 C   -3.1556005994   -1.1165141203   -0.0337245165
 C   -1.9498499571   -2.0910900006    0.1114404030
 O   -1.6075096344   -2.8814933351   -0.9758431264
 C   -2.5882500530   -0.2385979799    1.0936597531
 O   -2.6619308273   -0.7513197602    2.3923156765
 H   -0.6717130342    1.5518195458   -0.7977465246
 H    0.4973199275   -0.5388956758   -0.8002249097
 H    0.5376639569   -0.2905321939    0.9529508103
 H   -4.1900344546   -1.3115870818   -0.3154531486
 H   -1.8816921234   -2.6791105601    1.0250889350
 H   -1.7115354947   -2.3120514030   -1.7517199400
 H   -2.8742195860    0.8136634759    1.0081710377
 H   -2.2164871055   -0.1387507218    2.9858191527