18

 C    0.0184657845    1.5631198484    0.0073054452
 C    0.0282859163    0.0337133402   -0.0386796285
 C   -1.3886445427   -0.5504519523   -0.0025210713
 N   -1.4062614007   -2.0025494842   -0.0259635073
 C   -1.4712519810   -2.8506132592   -1.1006801836
 N   -1.4367593510   -4.1019269556   -0.7602154818
 N   -1.3362238382   -4.0597106701    0.6116911364
 C   -1.3107401691   -2.7861574279    1.1345986994
 O   -1.2307806887   -2.4053531075    2.2851281822
 H    1.0363717006    1.9623323524   -0.0082429565
 H   -0.5178848728    1.9864951066   -0.8494206992
 H   -0.4683645096    1.9283546733    0.9179298584
 H    0.5388012123   -0.3150998657   -0.9447159769
 H    0.5854888330   -0.3671716198    0.8148841361
 H   -1.8930410946   -0.2462925424    0.9196661973
 H   -1.9825321009   -0.1861984670   -0.8477495902
 H   -1.5520017277   -2.5066617844   -2.1203918360
 H   -1.2972131597   -4.9115889849    1.1425891663