19

 C    0.5534496534    0.3952331060    0.0922063971
 N   -0.4179541617   -0.1255512189   -0.8763593029
 C   -1.5055622160   -0.8307509241   -0.3321227515
 C   -1.6674189282   -1.9893118866    0.4050123477
 N   -0.7050191995   -2.9040528428    0.8435282016
 C    0.2807085628   -3.3757174505   -0.1203434072
 N   -2.9859295394   -2.1704528183    0.7432645027
 C   -3.6301404719   -1.1405193950    0.2292930092
 N   -2.7945461083   -0.3099665466   -0.4316934940
 H    1.3454764056    0.9240238226   -0.4474380180
 H    0.0545546039    1.1120500774    0.7508941368
 H    1.0131737151   -0.3786240706    0.7245178801
 H    0.0512023021   -0.6473128477   -1.6069725704
 H   -1.1801188847   -3.6695964831    1.3046701749
 H   -0.1607128058   -3.7846846726   -1.0438115316
 H    0.9580206167   -2.5630058475   -0.4019419432
 H    0.8890889337   -4.1546223910    0.3470017415
 H   -4.6925412491   -0.9639578573    0.3060072058
 H   -3.0207617087    0.5391440766   -0.9220967287