19

 C   -0.0030889556    1.5770495160   -0.0095816179
 C    0.0904473731    0.0685627940    0.1107937023
 C    1.3391388963   -0.7524957000   -0.2208975226
 C    2.5379041213   -0.0385649287    0.3091336877
 O    3.5999303107    0.2951233711   -0.1416212089
 C    1.9708115492   -0.0434769422    1.7576524599
 O    1.8006063542    1.1471272530    2.4896619325
 C    0.7058428857   -0.7184072674    1.2198782424
 C   -0.0096555252   -1.8217728026    1.9462748057
 H    0.8627035654    2.0801408021    0.4207183052
 H   -0.0929788897    1.8689991184   -1.0612700745
 H   -0.8907283789    1.9425769180    0.5178528392
 H   -0.7927865630   -0.4375746633   -0.2794339864
 H    1.3233086098   -1.5293486315   -0.9761641520
 H    2.5648326187   -0.7801066608    2.3262305787
 H    2.6715736314    1.5433752251    2.6063954062
 H   -0.5642750792   -1.4243342538    2.8039901947
 H   -0.7290218000   -2.3248306934    1.2924863051
 H    0.6914677256   -2.5741711940    2.3237994929