15

 C   -0.3004170333    1.6191499066   -0.0424945503
 C   -0.0092439948    0.1291501654   -0.0733138547
 C   -1.2061661856   -0.7293945671    0.2956172214
 C    0.8443113832   -0.3713618815   -1.2633070609
 C    1.9054641999   -0.6268172740   -0.1955915730
 O    3.0166664241   -1.0474738645   -0.1406051142
 O    1.1285160601   -0.1786343627    0.8366816494
 H    0.5975677650    2.1977486838   -0.2759788264
 H   -1.0750982272    1.8701193482   -0.7742742419
 H   -0.6548203048    1.9201118105    0.9478142230
 H   -2.0187971870   -0.5768741143   -0.4220085492
 H   -0.9403797755   -1.7900639533    0.2981575874
 H   -1.5749069176   -0.4655452509    1.2912600265
 H    0.4887803749   -1.2716818680   -1.7676474160
 H    1.1250732785    0.3783291720   -2.0052456312