16

 O   -0.6386820708    0.7745105496    0.5557203222
 C    0.3326197799    0.8800039103   -0.1512461359
 C    1.3903798729    1.9052866757    0.0387907327
 C    1.4739448669    2.7757561476    1.2744965975
 C    2.4889445245    3.8776711070    0.8859735731
 C    2.3709238242    4.0268901377   -0.6497604636
 C    1.9420084470    2.6511231521   -1.1227191536
 O    2.6669736208    1.5721148051   -0.5465536724
 H    0.5166707655    0.2078709278   -1.0181258391
 H    0.4759658891    3.1813611200    1.4716729909
 H    1.7771088555    2.2138773150    2.1620928503
 H    2.3068345907    4.8175396857    1.4114560024
 H    3.4982204924    3.5483389366    1.1415529097
 H    1.5912168181    4.7460300728   -0.9285756002
 H    3.3036635383    4.3559085046   -1.1179735725
 H    1.5942161650    2.4877201324   -2.1406480016