17

 O   -0.1415403357    1.4694556308   -0.2179344367
 C   -0.0400658456    0.0611669201   -0.1043374254
 C    1.1206823500   -0.5432298034   -0.9157544985
 C    2.1985005586   -0.7247420192    0.2083135619
 N    1.4214362655   -1.0953945658    1.4311293255
 C    0.2742306101   -0.6011714685    1.2281841306
 N   -1.0370669088   -1.0580363581    1.5916867971
 C   -1.9974396408    0.0462813879    1.3438058599
 C   -1.4257487358   -0.5618884569    0.1337043095
 H    0.7447905117    1.8403192029   -0.1499091152
 H    0.8597265475   -1.5279750236   -1.3148781318
 H    1.4251879801    0.0961605015   -1.7489188524
 H    2.8951403810   -1.5349806365   -0.0189862154
 H    2.8021783738    0.1791525916    0.3721307779
 H   -3.0069428267   -0.2386768575    1.6220428670
 H   -1.7181018790    1.0625101126    1.5989635646
 H   -1.9576075559   -1.2445938479   -0.5170214688