16

 C    0.4337453236    1.3403651088    0.6561118636
 C    0.0817091539   -0.0422701981    0.0669663688
 C    0.3242868315   -1.1524301751    1.1247563781
 O    0.5386209037   -0.9314842219    2.2816078618
 C   -1.3212277134   -0.1272082020   -0.3272653784
 C   -2.4794449557   -0.2219972673   -0.6410475837
 C    1.0666213725   -0.3535255462   -1.0919800338
 N    0.5903894504   -0.1865016031   -2.3479426578
 O    2.2054333709   -0.6887735179   -0.8300165588
 H    1.4957165397    1.3607108263    0.9073169646
 H    0.2152912777    2.1290756686   -0.0672226653
 H   -0.1443330403    1.5140506304    1.5646966117
 H    0.2521351681   -2.1817309709    0.7190917139
 H   -3.5059355282   -0.2984404413   -0.9049071944
 H   -0.3863929514   -0.0118911044   -2.5145562775
 H    1.2002438970   -0.3953577859   -3.1215368527