20

 C    0.1098479604    1.5360349884    0.0154784490
 C    0.0042381036    0.0336379416    0.0098562156
 C    0.1125177067   -0.7344336735    1.3003529282
 C    1.5228142558   -0.6712068264    1.9219292375
 C    1.5861617514   -1.4046110171    3.2388546910
 C    2.3942411899   -0.9310446252    4.3685344287
 O    0.9766598907   -0.7518611660    4.3582156942
 N   -0.1718168606   -0.6627140857   -1.0482767842
 O   -0.2395645612    0.1480286198   -2.1959464349
 H    1.0190842778    1.8630389408   -0.5008224374
 H   -0.7298588591    1.9740791669   -0.5320454585
 H    0.1226273014    1.9319463124    1.0329857295
 H   -0.6023430614   -0.3283966919    2.0274926138
 H   -0.1615909813   -1.7759499644    1.1081387988
 H    2.2480408485   -1.1118098288    1.2264262613
 H    1.8191948912    0.3711978693    2.0842497429
 H    1.3692149446   -2.4738687561    3.1879810496
 H    2.7717683750   -1.6404705420    5.1037609675
 H    2.9810372561   -0.0192300562    4.2617075776
 H   -0.4006797697   -0.5000000057   -2.8894783101