18

 O    0.0410093825    0.0240450966    0.1202671405
 C    0.0001364558    1.2089544976   -0.0210395881
 C   -1.1182518091    2.2654048979    0.0454269345
 C   -0.0418131694    3.1501862127    0.7625874797
 C    1.0544049967    2.3371825734   -0.0056530702
 C    1.1634672733    2.9088331750   -1.4147420172
 N    0.7141323200    2.0224915826   -2.5025004608
 C   -0.1301300357    3.1658046744   -2.1067080927
 C   -1.4169123292    2.8309588057   -1.3619695847
 H   -2.0325501460    2.0000600183    0.5792181123
 H   -0.0792323771    4.2225432687    0.5576179981
 H   -0.0139294717    2.9743041250    1.8395824152
 H    2.0195983136    2.1365136099    0.4614147347
 H    2.0000670571    3.5773265406   -1.6020456853
 H    1.2084666950    2.2288369864   -3.3662289293
 H   -0.1814641006    4.0061082231   -2.7942639985
 H   -2.0132337584    2.1158539333   -1.9394479475
 H   -2.0156519668    3.7426277389   -1.2501252907