19

 C    0.0250135635    1.4300909324   -0.1978956154
 O    1.3392207017    1.5739492782    0.3705541581
 C    1.4604819673    0.1489986019    0.5722616112
 C    0.0358731389   -0.1005593768    0.0302540992
 C   -0.9737050953   -0.6364125678    1.0272381167
 C   -2.4179522535   -0.7463014519    0.5030052125
 O   -2.9124129232   -1.9043010785    1.1558359113
 C   -1.8146140880   -2.7776813651    1.2034577643
 O   -0.6527551630   -1.9872637455    1.3816401549
 H   -0.7311054921    1.9924820200    0.3672260902
 H   -0.0102799277    1.7501952976   -1.2466534651
 H    2.2735722434   -0.2819185145   -0.0239945723
 H    1.6171188516   -0.1083944029    1.6265738590
 H    0.0029850718   -0.6981308293   -0.8841464910
 H   -0.9459031866   -0.0246583828    1.9412325297
 H   -3.0525981514    0.1002195722    0.7707835655
 H   -2.4290034175   -0.8746119221   -0.5917576850
 H   -1.9410962022   -3.4566766483    2.0529662777
 H   -1.7293057278   -3.3566387666    0.2661108886