14

 O   -0.7929156472    0.8546766451    0.1288380789
 C   -0.1719903120   -0.4086251245   -0.1049818702
 C    0.8717763819   -0.3255024625   -1.1265730069
 C    1.7493381098   -0.2279829979   -1.9422870522
 C    0.3731671170   -1.0213903537    1.1883053114
 C    0.9618996669   -0.1621257008    2.2383698669
 N   -0.3560744647   -0.7986183613    2.4369973269
 H   -0.1183392471    1.5353735972    0.0344086736
 H   -0.9789565766   -1.0581044125   -0.4696072876
 H    2.5166771131   -0.1513280803   -2.6730124660
 H    0.7533167729   -2.0318526033    1.0559862637
 H    1.7610344452   -0.5427002235    2.8672099057
 H    0.9886513725    0.9106637238    2.0682331945
 H   -1.0724421016   -0.0957288858    2.2579852915