17

 C   -0.0758965945    1.4626826231   -0.1022115697
 N    0.0319971881    0.0393220898    0.1941222021
 C   -1.1275795795   -0.7187142813    0.1334189303
 C   -1.3340330204   -2.0892598280    0.1663146212
 C   -1.1317178278   -3.6013950543    0.2359848289
 C   -2.7092358919   -3.6857915279    0.2146559310
 N   -2.6732556033   -2.2083641799    0.1408479578
 N   -3.3309174377   -1.0566374512    0.1053278521
 N   -2.3690683652   -0.1414623837    0.0886831912
 H    0.9119574011    1.9162210299    0.0101388062
 H   -0.4571156561    1.6738467992   -1.1118692559
 H   -0.7590415681    1.9294139939    0.6102670703
 H    0.8142728073   -0.4051033381   -0.2635336531
 H   -0.6454924464   -4.0623229913   -0.6269847644
 H   -0.6737730900   -3.9794814507    1.1527493532
 H   -3.1531689564   -4.1553025233   -0.6650903671
 H   -3.1767892892   -4.0625544262    1.1261025360