22

 C   -0.1626286559    1.5149324952    0.0690127387
 C    0.0197828065   -0.0076853819    0.0170324338
 C    0.7193018700   -0.4852462415   -1.2275516797
 C    0.0601032687   -0.3873112642   -2.6245454261
 C    0.8179222326   -1.6688665093   -2.9043855364
 C    2.1344246614   -1.6217566198   -2.1960432667
 C    2.2514968776   -0.3034108418   -1.4529829014
 C    2.8514343140    0.9277825979   -2.1211252903
 N    0.8997639099   -2.0323269737   -1.4474851000
 H    0.8000442834    2.0358491394    0.0763485838
 H   -0.7303801362    1.8779322575   -0.7942978206
 H   -0.7055313888    1.8101555799    0.9716612068
 H    0.5844502149   -0.3491099909    0.8936062547
 H   -0.9589045057   -0.5008326151    0.0724374916
 H   -1.0144140105   -0.5809224541   -2.5542008399
 H    0.2317796202    0.4988944139   -3.2432085277
 H    0.6004717681   -2.4226755287   -3.6531995998
 H    2.9200033339   -2.3400167758   -2.4069676917
 H    2.7495644350   -0.4919872654   -0.4940369206
 H    2.3767153941    1.1475965510   -3.0815491523
 H    2.7569627945    1.8151129098   -1.4863242345
 H    3.9195332222    0.7743131478   -2.3116496515