20

 C   -0.3330825140    1.6026323089    0.6160336055
 C   -0.2589969471    0.1088633931    0.3606891967
 C    0.7192744366   -0.3365910120   -0.7611611481
 C    1.4990854173   -1.0586695114    0.3307828648
 N    0.5831270066   -0.5581503878    1.4301307806
 C    0.6658159444   -2.0198444413    1.1112492631
 C   -0.4889882457   -2.8228400163    0.5332486904
 C    1.3750333927   -2.7332246362    2.1510406457
 C    1.9533765942   -3.3673460595    2.9926593494
 H    0.6696553427    2.0296322637    0.7178449010
 H   -0.8441233117    2.1091043401   -0.2099987140
 H   -0.8804208673    1.8063335095    1.5413227902
 H   -1.2695274785   -0.3065991191    0.2989388812
 H    0.3332521392   -0.9431669627   -1.5855104031
 H    1.2726869645    0.5069383406   -1.1800976887
 H    2.5786540973   -1.0490991644    0.4449058199
 H   -0.9266504135   -2.3659222538   -0.3546775190
 H   -0.1315176820   -3.8184728987    0.2566766006
 H   -1.2761246661   -2.9473954921    1.2835362972
 H    2.4651417904   -3.9131257703    3.7460639467