18

 C    0.0666607813    1.4793031428    0.0303956636
 C    0.0065130040   -0.0269062649   -0.0224491844
 C   -1.2852357896   -0.8622578878   -0.2061070810
 N   -0.4251735765   -1.9681084852   -0.7518443678
 C    0.5690046351   -2.2279462437    0.3436169003
 C    1.7598235253   -1.6437633613   -0.4455861424
 O    2.1758747967   -0.7943240114    0.6339132835
 C    0.7834301839   -0.8291999250    1.0460802113
 C    0.5947935986   -0.9144612654   -1.1859663453
 H    1.1060462144    1.8167520833    0.0923674920
 H   -0.3858398645    1.9309814234   -0.8586728970
 H   -0.4661812402    1.8649712825    0.9076031845
 H   -1.8792202994   -1.1193910492    0.6789096462
 H   -1.9458351832   -0.4825545363   -0.9913205501
 H    0.5295136053   -3.1599596844    0.9033895973
 H    2.5593218468   -2.1643034890   -0.9680502677
 H    0.6300665260   -0.6135241593    2.1027230689
 H    0.5966895261   -0.5738324892   -2.2200203519