11

 O    0.0332337566    0.0103089726   -0.0300970721
 C   -0.0522681617    1.1935093579    0.0301606369
 C   -1.2816085784    2.0863239132    0.1334891788
 O   -0.7578650031    3.3686037077    0.4519217353
 C    0.5748255851    3.3750646759    0.0124644307
 O    1.0381398364    2.0342393047    0.0221771500
 C    0.6944547528    3.9337617256   -1.3607345804
 N    0.7750332509    4.3900176509   -2.4180488553
 H   -1.8276752886    2.0852271287   -0.8194035331
 H   -1.9463971879    1.7577899198    0.9337062309
 H    1.1765879880    3.9689819429    0.7049021883