19

 O    0.5295387618    0.1677126930   -0.8665798808
 C   -0.2072537219   -0.4422618303    0.1586766155
 C    0.1422587588   -0.1637243948    1.6479409395
 C   -1.3681256688   -0.2109299404    1.9661147528
 C   -1.6640106566    0.0160373953    0.4523750164
 O   -1.6966014961   -1.5094749785    2.4216045125
 C   -3.0746609522   -1.6608585089    2.7094187413
 C   -3.3374578124   -3.0154923718    3.1767922942
 C   -3.5819026113   -4.1255563105    3.5636220007
 H    0.5264853702    1.1187370053   -0.7138994042
 H   -0.1752020670   -1.5139739346   -0.0498705304
 H    0.7724282809   -0.8777829073    2.1808874118
 H    0.5435150041    0.8470005727    1.7778767097
 H   -1.7606436875    0.5430454338    2.6623590199
 H   -1.7955537117    1.0812920581    0.2310553779
 H   -2.4850193298   -0.5436159404   -0.0019384283
 H   -3.3843879657   -0.9344572034    3.4804936781
 H   -3.6892429587   -1.4538530745    1.8182760816
 H   -3.7909797761   -5.1089748527    3.9055206018