18

 C   -0.5798726624    1.2888742438    0.5441453807
 C    0.0433518689   -0.0554233925    0.2618432798
 O    1.4346953100   -0.0909068811   -0.0725957258
 C    1.0146088683   -0.7415015476    1.1291018362
 C    1.5115849005   -0.1851391857    2.4345425149
 O    2.7566252634   -0.8180599610    2.7180466851
 C    3.3706896388   -0.3694125954    3.8945879671
 C    2.6274925888   -0.7437898869    5.1167835607
 N    2.0304821257   -1.0348808661    6.0621172130
 H    0.0575621544    1.9159553162    1.1704315584
 H   -0.7575149947    1.8220645459   -0.3954295159
 H   -1.5464687512    1.1627094344    1.0435804745
 H   -0.5684903290   -0.7038928581   -0.3690474677
 H    1.0565483482   -1.8310233244    1.0873444811
 H    1.6483173215    0.9023560890    2.3686859621
 H    0.7881467274   -0.3990469565    3.2365196718
 H    4.3625018165   -0.8295585409    3.9326703522
 H    3.5054627848    0.7238350970    3.8987489719