19

 C   -0.0718864326    1.3286979041    0.1933296239
 N   -0.0036390725   -0.0340093872   -0.2864424746
 C   -1.1682110210   -0.9055261786   -0.0986258150
 C   -0.5671292219   -2.3054706074   -0.0627038623
 N   -1.3518155529   -3.3169460610   -0.1272411399
 O   -0.6435187526   -4.5391006721   -0.0775262985
 C    0.8837184540   -2.1434695311    0.0229945317
 C    1.9255489491   -3.2154078798    0.1329636486
 C    1.1193846728   -0.8119441624   -0.0815183370
 H    0.8677058389    1.8415725737   -0.0307496590
 H   -0.8783145872    1.8637543698   -0.3178708008
 H   -0.2522728997    1.3949348321    1.2798346865
 H   -1.6633703923   -0.6733591716    0.8568879269
 H   -1.9047528588   -0.7801706059   -0.8975282345
 H   -1.3571456346   -5.1804638895   -0.1480532178
 H    1.9065979674   -3.8921824276   -0.7266882643
 H    2.9236308545   -2.7694761668    0.1956700999
 H    1.7714863969   -3.8370690405    1.0198301040
 H    2.0882046925   -0.3248879683   -0.0617007777