23

 C   -0.1088770858    1.5869479967   -0.0300265110
 C    0.0223804175    0.0610050902   -0.0213152368
 C    0.6180576953   -0.4880115154   -1.3286341776
 C    0.8981944452   -1.9846102210   -1.2010190801
 O    1.8471497868   -2.2365973058   -0.1775759631
 C    1.3839529559   -1.8952047662    1.1191734822
 C    2.5935330953   -1.4125178218    1.9469872105
 C    2.2571014535    0.0434083919    1.5173245918
 C    0.8136545722   -0.4471889423    1.1878622561
 H    0.8735523112    2.0658751795   -0.1071437334
 H   -0.7118038085    1.9265727718   -0.8792266500
 H   -0.5855547010    1.9507809885    0.8867542952
 H   -0.9894642818   -0.3644557965    0.0651079950
 H   -0.0700708994   -0.3025016343   -2.1623497087
 H    1.5586154333    0.0239011854   -1.5688905754
 H   -0.0400593012   -2.5327822921   -1.0040772876
 H    1.3324342154   -2.3888672658   -2.1203636025
 H    0.7570747219   -2.7060249883    1.5187105643
 H    2.4394882224   -1.5710246203    3.0178276988
 H    3.5587213581   -1.8284029896    1.6522550324
 H    2.3580858457    0.8320298819    2.2660547973
 H    2.8133591250    0.3342578852    0.6232254063
 H    0.2010567531   -0.3529606916    2.0920080163