15

 N    0.0719509533    1.1923853775   -0.2501196330
 C    0.0351216850   -0.0371500994   -0.0275278508
 O    1.0388788261   -0.9523419702    0.2532312995
 C    0.0937805212   -2.0608623727    0.3560892711
 C   -1.0377176532   -1.0871739896    0.0195902843
 N   -2.3581115693   -0.9392842863    0.5756813226
 C   -2.2335663610   -1.2936004295   -0.8557367018
 C   -2.6586519977   -0.2274157709   -1.8149117531
 O   -3.0341833313   -0.4686648253   -2.9340346100
 H    1.0202969845    1.5663721621   -0.2013269532
 H    0.3124658786   -2.8389090605   -0.3790214725
 H    0.0808429183   -2.4747056905    1.3686593829
 H   -2.6200689055   -1.7543139995    1.1255682430
 H   -2.4367463387   -2.3122890607   -1.1787614717
 H   -2.5942666803    0.8000015754   -1.4054189073