21

 C   -0.3471078845    1.5167018602    0.0151966558
 C   -0.0159715662    0.0181254257    0.0099830352
 C    0.7423751207   -0.3834366884   -1.2703397954
 C    1.1589007012   -1.8538529647   -1.2506168684
 O    2.3896354749   -2.0990424288   -1.9780254806
 C    3.1210338804   -2.3321164844   -0.7563145958
 C    1.8113798357   -2.3116874288    0.0747206382
 C    1.6486729093   -1.3964065984    1.2442230285
 C    0.7958385266   -0.3713429694    1.2278682174
 H    0.5682387316    2.1187781076   -0.0047222886
 H   -0.9483830527    1.7902962368   -0.8576342312
 H   -0.9103925535    1.7937542174    0.9125967732
 H   -0.9713965775   -0.5299184321    0.0380914181
 H    0.1427291910   -0.1663045448   -2.1612880412
 H    1.6517776714    0.2248006021   -1.3383860884
 H    0.3522738861   -2.4975591855   -1.6214110575
 H    3.6726988904   -3.2785667804   -0.7825567277
 H    3.8188407811   -1.5146954841   -0.5304766811
 H    1.5125547423   -3.3294392455    0.3475111903
 H    2.2208537136   -1.6201715297    2.1422309545
 H    0.6696395083    0.2401624250    2.1189913846