18

 N    0.1155951258    1.4331409176    0.0258646134
 C    0.0346112727   -0.0247323427    0.0051300859
 C    0.4575920548   -0.6335750923    1.3983038931
 C   -0.8750596099   -1.3059534717    1.7592789696
 C   -1.2454150283   -2.0706244673    0.4610264728
 C   -1.4173010995   -0.6128323806   -0.0243607143
 N   -1.8428518762   -0.2037792505    1.3658532650
 C    0.8368030769   -0.5368982738   -1.1099390827
 N    1.4412477915   -0.9568258230   -2.0010285327
 H   -0.1664633996    1.8114377630   -0.8749017150
 H   -0.5648880227    1.7514320672    0.7134032643
 H    1.2862599283   -1.3389851946    1.3221952469
 H    0.7309349971    0.1706535563    2.0824299512
 H   -0.9724125494   -1.7362886178    2.7554702900
 H   -0.5010894769   -2.7132531585   -0.0190435266
 H   -2.2036745470   -2.5897741121    0.5411999172
 H   -2.0398952006   -0.3173666240   -0.8692403515
 H   -2.7900470471   -0.5547704752    1.5092548136