21

 C   -0.0353065303    1.5284933960   -0.0407412815
 C    1.2882456154    0.7893603418    0.0267703829
 C    2.1004463923    0.6643456747    1.3110458206
 C    2.0593468077   -0.7853524788    1.8303576480
 C    0.6249395298   -1.1808245462    2.2097191146
 C   -0.3789550912   -0.9571530412    1.0814461246
 O   -0.4032835100   -2.0202064791    0.0871318807
 C   -0.3809535591   -1.0622106645   -0.9977281443
 C   -0.0103712945    0.0372515415   -0.0174731199
 H   -0.3821622000    2.0490842068    0.8481381433
 H   -0.2927099178    2.0251042268   -0.9712916614
 H    1.8680046664    0.7847586570   -0.8931498434
 H    3.1329415313    0.9806786128    1.1327533723
 H    1.7029422817    1.3340979454    2.0850870412
 H    2.4375945711   -1.4616574480    1.0539420166
 H    2.7151891653   -0.9000245993    2.7000599195
 H    0.5668699892   -2.2326083923    2.5121765846
 H    0.3074069217   -0.5856051685    3.0766497719
 H   -1.3912153564   -0.8145367761    1.4891659332
 H    0.3550486791   -1.3219047255   -1.7681824730
 H   -1.3721691718   -0.9573250831   -1.4630604505