13

 C   -0.0265801861   -1.1231286354    0.0637144484
 C   -0.0308065253    0.0787190696    0.0498139321
 C   -0.0282234019    1.5032452332    0.0216916690
 O   -0.7120673716    2.2785924948    1.0586049553
 C   -0.1574311913    3.3032348413    0.1895592695
 C    1.1615027083    2.5211337284   -0.1176261253
 N    1.0206644259    2.5664304120   -1.6069398746
 C   -0.3975648954    2.5039094277   -1.1329560362
 H   -0.0242973436   -2.1852970262    0.0781646479
 H   -0.3289729345    4.3507610775    0.4351933802
 H    2.1148650933    2.5187640747    0.4103861909
 H    1.2350834032    3.5050086051   -1.9521093500
 H   -1.2658064911    2.4814142276   -1.7912515772