16

 C    0.0339166065    1.5325783513   -0.2301949232
 C   -0.0273850793    0.0351775087    0.1233082373
 C   -1.4144347020   -0.5259210082    0.1548592512
 C   -2.2012471082   -0.9442186712    1.2065393492
 C   -3.4537654056   -1.3690837591    0.6792740052
 C   -3.4005807132   -1.2000414188   -0.6830664407
 N   -2.1630426778   -0.6877508901   -0.9896428926
 H    1.0678390607    1.8924418843   -0.2348879142
 H   -0.3910541829    1.7273834327   -1.2207432751
 H   -0.5340313069    2.1246520131    0.4934483972
 H    0.5942222467   -0.5278350921   -0.5872569952
 H    0.4219644200   -0.1242649713    1.1086181731
 H   -1.9029546489   -0.9441997754    2.2444401954
 H   -4.2928224136   -1.7571956083    1.2361101563
 H   -4.1261562400   -1.3996010211   -1.4551941356
 H   -1.8430123954   -0.4733340744   -1.9179976882