23

 C   -0.0368924338    1.6097687147    0.0235739995
 C   -0.0147746499    0.0796478841    0.0679498164
 C   -1.4096681521   -0.5475399902   -0.0311291438
 C   -1.3876767189   -2.0782851568    0.0095939525
 C   -2.7811357480   -2.7008254521   -0.0863759296
 C   -2.7673895251   -4.2245914988   -0.1316696199
 O   -1.7711345125   -4.8656163959   -0.3539349819
 C   -4.1199873947   -4.8870829830    0.1236232735
 O   -4.0286179918   -6.2677125741   -0.1064699344
 H    0.9723715731    2.0268356333    0.0964263942
 H   -0.4800386301    1.9727397813   -0.9106293470
 H   -0.6274535468    2.0218265354    0.8496413145
 H    0.6109159834   -0.3030970618   -0.7489478772
 H    0.4654755327   -0.2540419409    0.9972408808
 H   -2.0371951930   -0.1649799085    0.7866889255
 H   -1.8918776626   -0.2128231432   -0.9608200566
 H   -0.7708248782   -2.4699866868   -0.8061703675
 H   -0.9055661097   -2.4188175205    0.9342982271
 H   -3.4239378458   -2.3702610235    0.7413262073
 H   -3.2908180677   -2.3563923183   -0.9991777758
 H   -4.4032041577   -4.6466561941    1.1643083980
 H   -4.8684937960   -4.3932084646   -0.5206439807
 H   -4.8841345748   -6.6599453557    0.0901970552