19

 C   -0.0088880780    1.4693189773   -0.2788506787
 C   -0.0720380513   -0.0323737812   -0.1048305756
 C   -0.3393293843   -0.6414231853    1.2486554002
 C   -1.3989552847   -0.6891544078    0.1769345239
 N    1.3264739117    2.0188243856   -0.0911626103
 C    2.0461890790    2.0859772721    1.0837274428
 C    3.2473038383    2.6541789036    0.7496644491
 N    3.2919956084    2.9384518636   -0.5952432518
 C    2.1294137076    2.5445867887   -1.0622887811
 H   -0.3263298614    1.7489103053   -1.2887732897
 H   -0.7000241202    1.9556891361    0.4202411944
 H    0.6114262365   -0.5757278502   -0.7510578963
 H    0.1777026074   -1.5578319262    1.5088274066
 H   -0.5037858544    0.0273553110    2.0876722142
 H   -2.2672224170   -0.0489210301    0.2963878342
 H   -1.6124703190   -1.6379199454   -0.3016218812
 H    1.6410961772    1.7300676563    2.0160444481
 H    4.0792246946    2.8774905850    1.4005248241
 H    1.8003306897    2.6142142814   -2.0893432631