13

 O    0.3889715906    0.9467161402   -0.6502660464
 C   -0.0302504864    0.0699951185    0.3603328566
 C   -1.4550620759   -0.3430965522    0.1657328851
 N   -2.1611600553   -0.1649675585   -0.9105433030
 C   -3.3806600120   -0.7445694470   -0.6292202002
 C   -3.3472561220   -1.2568858694    0.6319857087
 O   -2.0971547013   -0.9978571782    1.1514578554
 C   -4.2861039646   -1.9403325611    1.4281083972
 N   -5.0746016399   -2.5021104481    2.0640225993
 H   -0.1582878154    0.7777866080   -1.4279081029
 H    0.5908931567   -0.8415919930    0.4041274706
 H    0.0755546555    0.5684228519    1.3318401668
 H   -4.1948391899   -0.7576175711   -1.3356173770