21

 C    0.0175524000    1.6017058128   -0.0599033074
 C    0.1162589065    0.0807705809    0.0186359600
 C    0.8205722706   -0.5905393144   -1.1904494657
 C    1.5273064141   -1.7749092004   -0.5783687349
 C    1.5628611049   -1.7270310158    0.7561400359
 C    2.1833326087   -2.7012711219    1.7057208173
 C    0.8601079032   -0.4947711038    1.2328498965
 C    1.3147691342    0.2864046067    2.3977264504
 O    0.1577004955   -0.5481916130    2.4857801587
 H    1.0092242937    2.0644519234   -0.1145397624
 H   -0.5415867180    1.9066546870   -0.9505626691
 H   -0.5039316517    2.0119139740    0.8110573860
 H   -0.8989206741   -0.3307910105    0.0844862580
 H    0.1144949775   -0.8742212754   -1.9793671971
 H    1.5404488626    0.0979934020   -1.6567948045
 H    1.9807391213   -2.5579277940   -1.1775258849
 H    2.5101366321   -3.6073274763    1.1893961542
 H    3.0575171737   -2.2707434417    2.2106338811
 H    1.4707689940   -2.9780606875    2.4899506844
 H    2.1767438728   -0.0460214001    2.9755129988
 H    1.1248541684    1.3576228881    2.4378973547