13

 O    0.0818503072    1.4577852685   -0.0456287347
 C   -0.0289513614    0.1009519037   -0.0738276878
 C    0.4131964791   -0.7612894895   -1.2528568566
 N   -0.5210274301   -1.8524819994   -0.7718170723
 C   -0.4209022081   -1.8766033578    0.7247402680
 C   -1.3104259971   -0.8922005830   -0.0072618129
 C    0.4085893157   -0.7124064925    1.1508438492
 O    0.9396142697   -0.3466156673    2.1658781407
 H    0.3372147900    1.7089263878    0.8547511627
 H    0.0428809877   -0.4135415698   -2.2193535194
 H    1.4707802977   -1.0383186026   -1.3228008668
 H   -0.6823947617   -2.7904858953    1.2385256654
 H   -2.3863039987   -0.7880908128    0.0155836545