18

 C    0.1046209500    1.5245066785    0.1100849108
 C   -0.0509480369    0.0125648282   -0.0839730258
 N    0.6381511627   -0.5042308277   -1.2572986999
 C    2.0863317427   -0.6987540520   -1.2189777039
 C    2.4893081745   -2.0637230579   -0.6531644412
 C   -0.0447778019   -0.8557431132   -2.3814937929
 O    0.4527516509   -1.3059164108   -3.3939806996
 H    1.1546521128    1.8118411181    0.2198905123
 H   -0.3069554078    2.0685566538   -0.7451901630
 H   -0.4251701205    1.8467495406    1.0121759386
 H    0.3105122107   -0.5198750935    0.8046483671
 H   -1.1124828898   -0.2377368894   -0.1841195287
 H    2.4471903265   -0.6016131662   -2.2452059475
 H    2.5286550170    0.1089513854   -0.6266626291
 H    2.1116449555   -2.2064061052    0.3645771480
 H    2.0954209068   -2.8648629756   -1.2839049040
 H    3.5796966398   -2.1545425912   -0.6224819581
 H   -1.1346204830   -0.6814975018   -2.2740089230