13

 O    0.0541053797    1.3332568146    0.0089788160
 C   -0.0259808554   -0.0632330823    0.0013093355
 C   -1.4918105495   -0.4691673307    0.0112898113
 O   -2.4110307434    0.3036524285    0.0243117796
 C   -1.7461876032   -1.9513241033    0.0061268914
 N   -2.8888702747   -2.5716121251    0.0130688591
 C   -2.4942586542   -3.8826317492    0.0028365015
 N   -1.2007504689   -4.0779612430   -0.0093280361
 O   -0.6898881921   -2.7825671380   -0.0073526153
 H    0.9835885859    1.5797073027    0.0009138787
 H    0.4410336646   -0.5225934378   -0.8870466550
 H    0.4560473272   -0.5331026261    0.8760626025
 H   -3.1850044561   -4.7130359603    0.0047424506