23

 C   -0.0028781581    1.5617909976    0.0547653657
 C   -0.0286930987    0.0367822195   -0.0965125803
 C   -1.4340318917   -0.5516793460    0.0147362226
 C   -1.5087405957   -2.1121110049    0.0287397120
 C   -1.3739286569   -2.0371083133    1.5779456657
 C   -2.0499190837   -0.6366489519    1.4569666130
 C   -3.5414433830   -0.8580266412    1.3078906581
 C   -3.9550217936   -1.7849253903    0.4423079425
 C   -2.9301230741   -2.5687210549   -0.3501052197
 H    1.0136227347    1.9546667294   -0.0469820370
 H   -0.6249942783    2.0440126076   -0.7074580018
 H   -0.3821046767    1.8730431062    1.0339685685
 H    0.3847789707   -0.2375070767   -1.0768060773
 H    0.6388511222   -0.4146818016    0.6473542774
 H   -2.0860145536   -0.0638994215   -0.7193855722
 H   -0.7453681921   -2.6613548222   -0.5305085996
 H   -1.8956572933   -2.7893118565    2.1748793660
 H   -0.3317827306   -1.9779929424    1.8980728199
 H   -1.7984489733    0.1364467599    2.1855036052
 H   -4.2367072518   -0.2696869408    1.8990451726
 H   -5.0084926891   -1.9997290241    0.2870869140
 H   -3.0978117168   -2.4318427323   -1.4282759730
 H   -3.0479456264   -3.6461497996   -0.1643200123