16

 C    0.0528918618    1.5540008556   -0.0736845919
 C   -0.0333101578    0.0305513052   -0.0298044522
 C    0.6700406755   -0.7326787909   -1.1698548853
 C    1.6888626041   -1.3663976786   -0.2268661658
 N    0.6011950650   -2.1393414682   -0.8345774759
 C    0.8618029631   -3.1785980397   -1.7211846139
 O    1.7582455519   -3.9758638827   -1.6120450696
 C    1.0517703211   -0.5872725127    0.9154115320
 O    1.3767331517   -0.3505150413    2.0391578919
 H    1.0676589897    1.8912440293   -0.3101585038
 H   -0.6271149694    1.9635513805   -0.8266464006
 H   -0.2180152373    1.9711392412    0.8996227354
 H   -1.0548159053   -0.3107652067    0.1562618951
 H    0.8516602809   -0.3995894079   -2.1843745004
 H    2.7136891300   -1.6754444910   -0.3890451307
 H    0.0849497152   -3.2331018021   -2.5067076644