20

 C   -0.0817755139    1.5711232135   -0.0385191058
 C    0.0032606713    0.0422592975    0.0019680178
 C    0.6827265249   -0.5823444797   -1.2428661954
 C    1.3181711892   -1.9078791232   -0.7622254276
 C    1.5634425880   -1.7363798182    0.7333483350
 C    2.2685369399   -0.4893296040    1.2118554738
 O    2.9566109169    0.3722394265    0.3445540401
 C    0.7679089292   -0.5222888684    1.1986386429
 H    0.9192417920    2.0083300404   -0.0892300696
 H   -0.6507864957    1.9099632936   -0.9114687084
 H   -0.5803295011    1.9653104622    0.8537731430
 H   -1.0178919371   -0.3580750626    0.0752744503
 H   -0.0291757604   -0.7383290719   -2.0590793217
 H    1.4596285660    0.0928921944   -1.6056691562
 H    0.6263134864   -2.7459689674   -0.9059563573
 H    2.2284884379   -2.1543788406   -1.3214883660
 H    1.6509935142   -2.6304940129    1.3427060718
 H    2.7215279431   -0.5625001069    2.2015947351
 H    3.7630091200   -0.0730303147    0.0636743833
 H    0.2661483794   -0.5079395075    2.1612692647