16

 N   -0.3702985345    1.2783926855   -0.2205903687
 C   -0.1110386325    0.0497450198   -0.1669568664
 O   -1.1589312074   -0.8171811782    0.0372395910
 C   -0.8792545392   -2.1578965633    0.1298023083
 O    0.2234191165   -2.6236758629    0.0513649101
 C   -2.1578550592   -2.9283070006    0.3768048892
 C   -1.9966232756   -4.4064071131    0.1223545540
 C   -3.1482421997   -5.2457463940   -0.2247040792
 O   -2.2086874015   -4.8394472161   -1.2210209667
 H    0.4876239939    1.8051141676   -0.3792249557
 H    0.8479987410   -0.4593240592   -0.2618904371
 H   -2.4444414108   -2.7470701984    1.4218275934
 H   -2.9559372644   -2.5103986970   -0.2428627997
 H   -1.1402346430   -4.8686486773    0.6104291764
 H   -3.1389602727   -6.3050127263    0.0268195347
 H   -4.1379600607   -4.7971970366   -0.3047518336