16

 C    0.0726053790    1.3818779248    0.0069287536
 O   -0.0378887356   -0.0415002910    0.1522226752
 C   -1.2644232839   -0.5495968702   -0.0638662775
 O   -2.2291135863    0.1163860589   -0.3441557757
 C   -1.2511974974   -2.0619258047    0.0663410668
 C   -2.6501916206   -2.6309024332    0.3276003621
 C   -2.7184294325   -4.1154076612    0.0568191217
 O   -3.1614762423   -4.9390969896    0.8132343068
 H    1.1152414413    1.6202559587    0.2159536891
 H   -0.1949929024    1.6871776433   -1.0076639507
 H   -0.5868982082    1.8921178393    0.7130519972
 H   -0.8487098112   -2.4566908624   -0.8773889817
 H   -0.5376114495   -2.3504514376    0.8427771208
 H   -2.9850424144   -2.4381235470    1.3497649427
 H   -3.3510133695   -2.1294624589   -0.3534978944
 H   -2.3194586765   -4.4124497192   -0.9435342958