21

 C    0.0530885481    1.6389247581    0.0532404773
 C    0.0040453186    0.1129915914    0.0265740794
 C    0.9195380653   -0.5568417087   -1.0416119676
 C    1.7881295099   -1.4242217449   -0.0999404214
 C    2.1936383116   -2.8176614152   -0.6455365033
 C    0.7229538062   -3.2432456752   -0.1486342392
 C    0.8844647121   -2.0646516437    0.8850044198
 C    0.6734759819   -0.5469670123    1.2412653844
 O    2.1326284313   -0.3826887752    0.9264131106
 H    1.0805670545    1.9773672525    0.2157622659
 H   -0.3018336496    2.0609207873   -0.8928996810
 H   -0.5735150983    2.0464292295    0.8543418850
 H   -1.0338288813   -0.2258191727   -0.0679345723
 H    0.3715272595   -1.1233632588   -1.7981331925
 H    1.5565305197    0.1674808165   -1.5569502273
 H    2.4314609072   -2.9126327494   -1.7085744726
 H    2.9548332894   -3.3204510143   -0.0460863936
 H   -0.0282071506   -3.1013853894   -0.9259249310
 H    0.6232509998   -4.2443445969    0.2743001085
 H    1.5071073479   -2.4584237161    1.6925853686
 H    0.4249746265   -0.2054804526    2.2477810822