22

 C   -0.2049667636    1.4517179422    0.2169474640
 C   -0.0083266959   -0.0460505500   -0.0324109922
 C    0.8117988823   -0.2871296213   -1.2962084621
 C    0.8640482164   -1.6990123550   -1.9246303802
 O    0.4564018370   -1.1887794933   -3.2104674042
 C    0.1988358287    0.1162804933   -2.6560442310
 N    0.6926441375   -0.6307081250    1.1137280200
 C   -0.1080392147   -0.9205610374    2.2969996704
 C    0.4082377520   -2.0242825081    1.4424600055
 H    0.7628388562    1.9440574864    0.3540788952
 H   -0.7216652401    1.9250073630   -0.6234535178
 H   -0.8017887123    1.6219577830    1.1177823423
 H   -1.0031878662   -0.5159267296   -0.1651588679
 H    1.8113203200    0.1302548227   -1.1494274702
 H    1.8440247824   -2.1872062572   -1.9665795141
 H    0.1299178032   -2.4108100002   -1.5223657954
 H   -0.8781586861    0.3383781492   -2.6212988939
 H    0.7046303566    0.9109706987   -3.2161676557
 H    0.3554090752   -0.6928671513    3.2526317765
 H   -1.1786542368   -0.7245449502    2.2514850276
 H   -0.3237393704   -2.5573073877    0.8382677006
 H    1.2591413586   -2.6213505122    1.7578176627