16

 C   -0.0070006779    1.5409059270    0.0109408265
 C    0.0970705495    0.0339746398   -0.0922716485
 C    0.7068984418   -0.7348488530   -1.2068425802
 C    1.9154902183   -0.0090638247   -1.8130616229
 C    2.5790301595   -0.0456713233   -0.4159141781
 O    3.6706702411    0.2190847633   -0.0144121464
 C    1.3891130408   -0.7527718755    0.2096954041
 C    1.4342182316   -1.7664972029    1.2076520241
 N    1.4786073060   -2.5948385306    2.0151436311
 H    0.8603381471    2.0577220798   -0.4051986074
 H   -0.8968632628    1.8912673550   -0.5224318610
 H   -0.1023806359    1.8419195273    1.0582006298
 H   -0.7512969623   -0.4843432955    0.3499328255
 H    0.2166178704   -1.5871692180   -1.6580349031
 H    2.4934440757   -0.6351995326   -2.4987998024
 H    1.7447825072    0.9643786340   -2.2783716510