16

 O    0.0122705862   -0.0550460561   -0.1343280510
 C   -0.0286312854    1.1507547917    0.0109822547
 N   -1.2018320885    1.8482157392    0.1730144326
 C   -1.3267672309    3.2945601891    0.0881565565
 C   -0.0729436525    3.9421532567    0.6699258075
 C    1.1792287429    3.3554485344   -0.0056911266
 N    1.1355140390    1.9096240029    0.1015753182
 C    1.2881053451    3.8184612944   -1.4100255677
 N    1.3766094002    4.1714091875   -2.5070488203
 H   -2.0172787012    1.2795182273    0.0085453315
 H   -1.4708058436    3.6315247643   -0.9493226021
 H   -2.2064435449    3.6092798999    0.6580425484
 H   -0.1007281955    5.0248465846    0.5297489951
 H   -0.0028996571    3.7286288160    1.7402562764
 H    2.0714708164    3.7179568935    0.5173591750
 H    1.9544168098    1.3868251547   -0.1695456883