15

 C   -0.0129483271    1.5596490161   -0.0746529173
 C    1.4697990990    1.8525994658    0.0590339891
 C    2.2956382598    0.7164958534   -0.5168014592
 C    2.1336976106    0.8483721376    0.9837214727
 C    1.1706841534   -0.3663482529    0.9862392410
 C    0.0392666025    0.0495520314    0.0636096084
 C    1.3318515851   -0.4976110593   -0.5144205446
 H   -0.6046295341    2.0310446248    0.7185237487
 H   -0.4150774860    1.8762949963   -1.0439081006
 H    1.8598476467    2.8626068269    0.0122400248
 H    3.1747198197    0.8465311877   -1.1325609799
 H    2.8646771473    1.0990492749    1.7398200031
 H    1.0949757398   -1.1334197084    1.7443440998
 H   -0.8557044957   -0.5600774400    0.0209390639
 H    1.4034159891   -1.3846631643   -1.1283198096