16

 N   -0.8902572163   -0.6654751075   -1.0307400589
 C   -0.4509655490    0.2759239675   -0.5226043227
 C    0.1106629949    1.4441369146    0.1308867500
 C    0.0173117476    1.5205685503    1.6935203189
 C    1.4679941304    2.0169477633    1.6899323609
 C    1.9708286313    3.2553981481    2.3238678191
 N    2.4621699540    1.9242621205    2.7421765002
 C    1.6705504011    1.5424114776    0.2480815072
 H   -0.3040564604    2.3451923374   -0.3273001546
 H   -0.7546493184    2.1735604634    2.1058743199
 H   -0.0791262886    0.5235747126    2.1329321721
 H    2.7077084997    3.8715855842    1.8151479935
 H    1.3018806276    3.8001741546    2.9859897784
 H    2.0308076721    1.6456532117    3.6206765603
 H    2.1447093512    0.5590324056    0.2052277366
 H    2.1676355928    2.2163552460   -0.4514733309