23

 C    0.0840064228    1.4512384223   -0.2383079265
 C   -0.0451810992   -0.0519030847    0.0509995522
 C    0.7789957032   -0.4411106181    1.2875582075
 C   -1.5131094726   -0.5175180958    0.1421521115
 C   -2.3038681448    0.1177520557    1.2903165878
 C   -2.3082109667   -0.4253151091   -1.2108507963
 C   -2.7032731421   -1.8950818137   -1.0243495862
 O   -3.5252764116   -2.6038731465   -1.5290504046
 C   -1.7011977695   -2.0781321832    0.1216899644
 H    1.1286985543    1.7179661902   -0.4281869893
 H   -0.4992882165    1.7471527885   -1.1162317426
 H   -0.2567241677    2.0551428207    0.6093604822
 H    0.3861088548   -0.5865884605   -0.8085555778
 H    1.8385652311   -0.2148908035    1.1303447133
 H    0.4570035229    0.1117694222    2.1763688329
 H    0.6969078895   -1.5098996705    1.5100392666
 H   -2.3513857929    1.2068419274    1.1947032063
 H   -3.3346197569   -0.2536432256    1.2992028342
 H   -1.8642924960   -0.1194373544    2.2639850011
 H   -3.1286814075    0.2941186441   -1.2799195684
 H   -1.6599241129   -0.2995798459   -2.0858325983
 H   -0.8088483796   -2.6169551683   -0.2175167435
 H   -2.0786841719   -2.5648847214    1.0250740635