17

 C    0.0317092116   -1.1531205054   -0.1472117686
 C    0.0201477180    0.0461149979   -0.0607045933
 C    0.0143770249    1.4953822064    0.0309875566
 C   -0.8649144016    2.2077863570   -1.0227386737
 C   -0.0363197165    3.4092320561   -1.4080112052
 C    1.1726343976    3.4154120118   -0.8458418674
 C    1.3930370602    2.2436108121    0.0658281516
 C    1.0560260445    2.4835708732    1.5550980291
 O   -0.2784554734    1.9622503002    1.3784616644
 H    0.0363093064   -2.2128041987   -0.2173352655
 H   -1.0821854033    1.5622346884   -1.8819687497
 H   -1.8243616248    2.4748860329   -0.5649963371
 H   -0.4086417083    4.1700714357   -2.0853158410
 H    1.9265542223    4.1806944515   -0.9949092674
 H    2.2985678588    1.6686068454   -0.1360241211
 H    1.6394301890    1.8730214230    2.2560904383
 H    1.0464712945    3.5249625325    1.8940492700