22

 C    0.1078982309    1.5433206300   -0.3453199967
 C    0.0945089189    0.0576417870   -0.0555450822
 C    1.3583324614   -0.7276502647    0.0331616845
 N    0.5317032022   -0.5145455087    1.2197900815
 C    1.0422230823    0.3525903719    2.2752822673
 C    1.6511090654   -0.4790792508    3.3962383251
 C    3.0686677142   -1.0588207269    3.1803706725
 O    3.5998029238   -0.3008374261    4.2870585067
 C    2.3174763826    0.3030082226    4.5497309050
 H    1.0329075457    2.0247501131   -0.0193954217
 H    0.0086913271    1.7120169193   -1.4227763148
 H   -0.7309265492    2.0502137192    0.1448696579
 H   -0.7819968521   -0.4533800804   -0.4531678993
 H    1.4183875339   -1.7484378305   -0.3358242989
 H    2.2879881215   -0.1634759594   -0.0455583883
 H    1.7905628252    1.0825415358    1.9211932991
 H    0.1988485403    0.9287793444    2.6781335452
 H    0.9243052524   -1.2243492793    3.7250644940
 H    3.1753929081   -2.1392968776    3.3345783671
 H    3.5513174014   -0.7885562729    2.2316162695
 H    2.3435299450    1.3944081994    4.4216188466
 H    1.9539858790    0.0764460244    5.5597054798