17

 C   -0.0521390247    1.4406501416   -0.1353048517
 C    0.0045312657   -0.0769137083    0.1348541906
 C    0.8483569641   -0.3961490950    1.3861027480
 C   -1.3422260227   -0.6300329255    0.2653400069
 C   -2.4580615455   -1.0691277431    0.3972824049
 C   -3.8145415457   -1.5510111301    0.6113884894
 N   -4.1945364555   -2.5322408761   -0.2605426762
 O   -4.5381364884   -1.1260697059    1.4917338808
 H    0.9601969093    1.8341845229   -0.2694953613
 H   -0.6315618508    1.6605960029   -1.0355623024
 H   -0.5180090121    1.9634632485    0.7050413327
 H    0.4852028787   -0.5569456532   -0.7287932485
 H    0.4104795548    0.0692513276    2.2739189359
 H    0.9052138459   -1.4736328605    1.5602642769
 H    1.8648098029   -0.0109580534    1.2590853033
 H   -3.6052037683   -2.8130937469   -1.0242040319
 H   -5.1403046178   -2.8735821357   -0.2092385074