18

 C   -0.3632057903    1.2739276640   -1.2907276878
 C    0.2359264175   -0.0388620721   -0.8304844883
 O    1.6252602806   -0.1956209344   -1.2239001264
 C    2.0453958228   -0.5623730272    0.1172101538
 C    3.2430010484    0.2305893786    0.5979933590
 C    0.6473873340   -0.2189225759    0.6303179102
 C    0.2036752797    0.4537254453    1.8490880354
 O   -0.0710180590   -0.9378372008    1.6048649071
 H    0.2107815894    2.1217675829   -0.9059411469
 H   -0.3642538939    1.3259763868   -2.3838465944
 H   -1.3995242882    1.3619053335   -0.9470115007
 H   -0.3667154146   -0.8875095700   -1.1858235749
 H    2.2427764576   -1.6424809515    0.1808762697
 H    3.0361085935    1.3043514035    0.5738000000
 H    3.5052786034   -0.0571390211    1.6218389436
 H    4.1088373643    0.0318329550   -0.0411016647
 H    0.9141173153    0.6539766469    2.6497365321
 H   -0.6644262906    1.1106766365    1.8229872830