23

 C   -0.0359349540    1.5509533705    0.0110442797
 C    1.2731340617    0.8057421983   -0.0057128568
 C    2.3350600861    0.8676038835   -1.1146696179
 C    3.3901841569    1.2200196881   -0.0238658694
 C    2.3562844504    0.8554461603    1.0831453627
 C   -0.0114147979    0.0447590948    0.0024777649
 C   -0.5649747142   -0.8752337588    1.1017908495
 C   -1.3916736563   -1.6131807323    0.0066414856
 C   -0.5861921405   -0.8630892061   -1.0960420454
 H   -0.3275927244    2.0531671816    0.9302967200
 H   -0.3452232037    2.0632747497   -0.8967968997
 H    2.5170055550   -0.1045055747   -1.5860469349
 H    2.1810338811    1.6081456577   -1.9044592020
 H    4.3172264956    0.6426961533   -0.0360117555
 H    3.6451420921    2.2824245951   -0.0204510050
 H    2.2176182746    1.5871892341    1.8839059503
 H    2.5471949153   -0.1217988795    1.5401386329
 H    0.2047310991   -1.5094572309    1.5552333228
 H   -1.1326989846   -0.3975973022    1.9051879682
 H   -1.3305283741   -2.7036260810    0.0000255734
 H   -2.4459299292   -1.3266079232    0.0184024732
 H   -1.1692693184   -0.3766649902   -1.8830025519
 H    0.1745489595   -1.4921809681   -1.5712399820