20

 C   -0.0075200459    1.5358269144   -0.0143030973
 C   -0.0049007954   -0.0002822774    0.0115313813
 C    0.7483622807   -0.5043250121    1.2659788215
 C   -1.4592817902   -0.5291002023    0.0202649656
 C    0.7070318409   -0.5134267264   -1.2393939401
 O    1.1755353519    0.2203887576   -2.0826612944
 C    0.8484608803   -2.0530860217   -1.4612107744
 N    1.4988893926   -2.3221448565   -2.6137578906
 O    0.4227364914   -2.8920842944   -0.6875935169
 H    1.0093792011    1.9367643325   -0.0302862977
 H   -0.5261761302    1.9195564733   -0.8968347304
 H   -0.5150190603    1.9167650947    0.8773957602
 H    0.2541926339   -0.1123132342    2.1610536418
 H    0.7525331484   -1.5932941261    1.3148526112
 H    1.7834045876   -0.1458157138    1.2755361482
 H   -2.0085574818   -0.1883996818   -0.8641338255
 H   -1.4847501678   -1.6183962476    0.0524540481
 H   -1.9766699365   -0.1373509375    0.9022361933
 H    1.8138487565   -1.5543675890   -3.1844311029
 H    1.6626591329   -3.2771946118   -2.8824214310