21

 C   -0.0199047993    1.6249723594    0.0023464303
 C    0.0287149641    0.0932916284    0.0300825678
 C    0.7868912462   -0.5378299627   -1.1682771592
 C    1.5073931027   -1.7922897104   -0.6112505522
 C    2.8867107236   -2.0406692286   -1.2656812599
 C    3.5486389622   -3.2437276840   -0.7756989511
 C    4.0697178872   -4.2424110686   -0.3551070349
 C    1.5602226414   -1.5054293515    0.8731950968
 C    0.7659978441   -0.4937241161    1.2156084744
 H    0.9909403284    2.0477708800    0.0074316458
 H   -0.5325790856    1.9867859784   -0.8953224488
 H   -0.5537331729    2.0215124775    0.8726519412
 H   -1.0095730880   -0.2738509924    0.0436653145
 H    0.1335271485   -0.7640831849   -2.0155791827
 H    1.5405361306    0.1773572249   -1.5229569067
 H    0.9016999338   -2.6932579097   -0.7864498779
 H    2.7597639767   -2.1126690258   -2.3537738701
 H    3.5284781592   -1.1678986284   -1.0870733463
 H    4.5410288322   -5.1218016690    0.0076996142
 H    2.1590222174   -2.1027754494    1.5516196607
 H    0.6136196375   -0.1303586071    2.2271104541