21

 C    0.0091627476    1.5036630412   -0.0684939976
 C   -0.0180268414   -0.0018899005    0.0662558195
 C    1.2486220748   -0.7954648378   -0.1418133147
 C    0.6029189511   -0.7727117284    1.2342901015
 C    1.3184867553   -0.1490418704    2.3997860569
 O    2.2335287852   -1.1120072293    2.9168161299
 C   -0.3227391193   -1.9210498596    1.4800320147
 C   -1.3606569112   -1.9142917827    0.6425621663
 C   -1.3320474365   -0.7169997312   -0.2817504645
 H    0.9693613474    1.9266134989    0.2411319586
 H   -0.1540395238    1.8002794109   -1.1116814427
 H   -0.7770702614    1.9750674002    0.5329919801
 H    1.2175525523   -1.7241820626   -0.7024786665
 H    2.1636280979   -0.2226516939   -0.2643545249
 H    1.8459918119    0.7619796733    2.0779319142
 H    0.5898419337    0.1473673510    3.1713599179
 H    2.6071596653   -0.7598021131    3.7302897397
 H   -0.1149424026   -2.6663806733    2.2386473896
 H   -2.1360518771   -2.6705264916    0.5941394486
 H   -2.1962141796   -0.0582803345   -0.1106637031
 H   -1.3746967795   -1.0047523765   -1.3406850935