16

 C   -0.0079751464    1.5442948344   -0.0317010591
 C    0.0028470641    0.0082112634    0.0167103938
 O    0.7629019220   -0.4789514428   -1.1103528371
 C    1.8272141887   -1.2260202338   -0.6828608369
 N    2.6163071956   -1.7372754211   -1.5307254392
 C    1.7982096143   -1.2456482245    0.7931032547
 C    0.7520179057   -0.5428281614    1.2154779825
 C   -1.3610579266   -0.5291061893   -0.0430251970
 C   -2.4855097630   -0.9506380633   -0.0627414717
 H    1.0174774356    1.9191738381    0.0122511024
 H   -0.4735364880    1.8779108320   -0.9614608753
 H   -0.5770139101    1.9463170685    0.8106815687
 H    3.3535508315   -2.2523577292   -1.0531290294
 H    2.5362325056   -1.7639698524    1.3894430240
 H    0.4262561271   -0.3580761956    2.2300053402
 H   -3.4764569861   -1.3322260529   -0.0938116207