22

 C   -0.4282140086    1.6037464525   -0.0089488141
 O   -0.0804681215    0.2284052654    0.0801306977
 C   -1.1129952056   -0.6372916631    0.0199628443
 N   -0.9171456846   -1.8775659966    0.0882944494
 C   -2.0680168685   -2.7512792563    0.0178225476
 C   -1.9646753540   -3.7696666871   -1.1320338198
 C   -2.9819996758   -4.8663508292   -0.7605365259
 C   -3.0737484670   -4.8435795176    0.7965719430
 C   -2.1858967251   -3.6634741693    1.2541690016
 H    0.5062861748    2.1622512997    0.0564909094
 H   -0.9171556976    1.8352144786   -0.9633869142
 H   -1.0851788705    1.9079685569    0.8153348399
 H   -2.1009473450   -0.1613278019   -0.0903944725
 H   -3.0086758533   -2.1798341310   -0.0973988716
 H   -2.1488748996   -3.3207746109   -2.1124565292
 H   -0.9426987201   -4.1650633233   -1.1399222935
 H   -3.9597230587   -4.6418684401   -1.1995212730
 H   -2.6854700917   -5.8451675647   -1.1468712799
 H   -4.1105125965   -4.6998536476    1.1159575347
 H   -2.7413087349   -5.7856319390    1.2409472186
 H   -1.1778163128   -4.0059772383    1.5115284746
 H   -2.5818758034   -3.1372796769    2.1274967226