17

 C    0.0304563042    1.5572345775   -0.4693372394
 C   -0.0361014901    0.0866648544   -0.1289734401
 C   -1.3924682793   -0.4416529309    0.3469566535
 C   -1.9172807808    0.2603969696    1.5093452334
 C   -2.3516247355    0.8492253017    2.4731993790
 C   -2.8416681377    1.5093742404    3.5576204523
 C   -3.2776712671    2.0957090057    4.5190073513
 C    0.8913786246   -0.8674683053   -0.7531654979
 O    1.0828331607   -0.4301111610    0.5955991333
 H    1.0422472027    1.8293450846   -0.7778611596
 H   -0.6621787308    1.8002869684   -1.2824806397
 H   -0.2436103421    2.1630679033    0.3992585614
 H   -2.1125725158   -0.3656683798   -0.4796792080
 H   -1.2871938367   -1.5077694156    0.5790170787
 H   -3.6591729825    2.6101086640    5.3656808967
 H    0.6035368807   -1.9119932600   -0.8697836521
 H    1.6275205855   -0.5092224468   -1.4715317128