17

 C    0.0579514002    1.5581038650    0.0600032323
 O    1.1916006513    0.6686443549   -0.0175567759
 C   -0.1103913112    0.1107234519    0.0082365449
 C   -0.5443509067   -0.9399277430    1.0337439605
 C   -2.0723209431   -0.9330569371    0.8062897491
 C   -1.9568227200   -1.4571964223   -0.6437198809
 O   -1.3738544572   -2.7751452503   -0.4161126538
 C   -0.1915930184   -2.0407065647   -0.0929641059
 C   -0.5448673262   -0.8796082937   -1.0594711818
 H   -0.0495620364    2.0860227983    1.0067989710
 H   -0.1163160939    2.1622999089   -0.8293858938
 H   -0.1425890103   -0.9623681864    2.0436984168
 H   -2.6258226331   -1.6430449918    1.4232421199
 H   -2.5094231990    0.0646461042    0.8993907097
 H   -2.8256909464   -1.4654743494   -1.2996716418
 H    0.7347425433   -2.6082297588   -0.0490224847
 H   -0.2624244129   -0.8376213555   -2.1084147958