19

 O   -0.0131696017    1.3933171658    0.0362367324
 C    0.0273631031   -0.0138853420    0.0004907776
 C    0.2270644997   -0.6536243045   -1.4132804625
 C   -1.1336378287   -1.3959566807   -1.2920336412
 C   -1.0637930592   -2.7643540614   -0.5717564027
 C   -1.0215046462   -2.0338664170    0.8006831425
 O    0.2973788621   -1.9446726406    1.3446599591
 C    0.8277496374   -0.6420122691    1.1462874634
 C   -1.3595685428   -0.6929881872    0.0943572502
 H    0.8588732531    1.7251508850   -0.2048589502
 H    0.2014202041    0.1246510645   -2.1801994963
 H    1.1165600977   -1.2747362542   -1.5571107189
 H   -1.8151636754   -1.3018871155   -2.1367086706
 H   -1.9924161771   -3.3295598712   -0.6951206299
 H   -0.2137395742   -3.4173960600   -0.7869261843
 H   -1.7022727590   -2.4061107783    1.5709752091
 H    1.8993657917   -0.7364660766    0.9304379093
 H    0.7049717605   -0.0182830649    2.0451940863
 H   -2.2243766650   -0.1019911319    0.3882520866