19

 C   -0.4869793448    1.4487328214    0.3219166687
 C    0.5211547217    0.3498103173   -0.0611561488
 C    1.0988228841   -0.3272159921    1.0939338956
 C    1.5434476408   -0.8715913706    2.0726615939
 C    2.1718363953   -1.5303200379    3.2090565600
 O    1.4739696840   -2.7275852039    3.5158663940
 C    1.8221385980   -3.2631350057    4.7810891343
 C    3.6242646576   -1.8710199343    2.8178137911
 O    4.5976207173   -1.3566725752    3.2965948753
 H   -0.0091683561    2.2181637488    0.9340459137
 H   -0.8896544549    1.9235012413   -0.5774511620
 H   -1.3190503220    1.0297838620    0.8938001172
 H    0.0325813082   -0.3938188282   -0.7033686759
 H    1.3296430353    0.7832386455   -0.6636169653
 H    2.2095356948   -0.8579707581    4.0802839001
 H    2.8873968740   -3.5267663269    4.8474963026
 H    1.5902939651   -2.5576326996    5.5925276832
 H    1.2257505534   -4.1680764314    4.9125060801
 H    3.6796527481   -2.6672618723    2.0433751224