18

 C   -0.0422467159    1.5472048061   -0.0557243215
 C   -0.0271911211    0.0177408496   -0.0070162599
 C    0.6613828247   -0.5957703741   -1.2279352994
 C    0.7081932939   -2.1014409196   -1.2134834453
 O    0.2552390227   -2.7958530018   -0.3350727242
 C    1.4100474623   -2.8360545541   -2.3984265281
 O    1.4200592369   -4.2100880469   -2.1771920402
 C    0.7311209787   -2.4850981371   -3.6627755133
 N    0.1951164298   -2.1871920661   -4.6422347184
 H    0.9737643742    1.9563063822   -0.0856056967
 H   -0.5727076755    1.9132776194   -0.9415022168
 H   -0.5410225757    1.9606801434    0.8253952218
 H    0.4792085275   -0.3276603738    0.9006022268
 H   -1.0500090872   -0.3684728209    0.0552684127
 H    0.1697285027   -0.2866764850   -2.1606437954
 H    1.6961377551   -0.2340901458   -1.3236951276
 H    2.4399223685   -2.4506307541   -2.4631174141
 H    0.8721509984   -4.3387578015   -1.3823196106