18

 C   -0.0569940289    1.5734082403    0.0952262803
 C    0.0169165265    0.0604593675   -0.0352289852
 C    1.1046498538   -0.5669086187   -0.9835472416
 C    1.6929571504   -1.3170463147    0.2233579537
 C    2.4004615580   -2.6301664440    0.2642286598
 O    2.0605812920   -0.3139811041    1.1793324702
 C    0.6807041193   -0.7092598606    1.1281390907
 C    0.0744175841   -1.2065095674    2.3231721798
 N   -0.4588583493   -1.6104412310    3.2671647513
 H    0.9200412125    1.9810981585    0.3682764641
 H   -0.3664482412    2.0273858980   -0.8515994120
 H   -0.7809388641    1.8692109353    0.8614282478
 H   -0.9655322507   -0.3680828681   -0.2523343133
 H    0.6764775794   -1.2266334631   -1.7412022815
 H    1.7962630550    0.1354632977   -1.4547026232
 H    3.3958380412   -2.5390541269   -0.1843109690
 H    2.5172912157   -2.9696551934    1.2962491513
 H    1.8439955063   -3.3858035153   -0.2981794532