23

 C    0.1006725071    1.6032358468    0.0268182449
 C    0.0221158968    0.0701172638   -0.0230448275
 C    0.6637847757   -0.4362552319   -1.3272864704
 C    0.7272548914   -1.9714595940   -1.4569571445
 C   -0.6152752655   -2.6228905565   -1.2885111652
 C   -1.1425998594   -2.9799549347   -0.1105532208
 C   -0.5065000488   -2.8670835355    1.2047231368
 C    0.2669791931   -1.9036989393    1.7280471944
 C    0.6624174141   -0.5280502695    1.2464995842
 H    1.1415766278    1.9426935843    0.0958857382
 H   -0.3334057830    2.0514939599   -0.8731567236
 H   -0.4366464229    2.0028434964    0.8933425729
 H   -1.0365852010   -0.2116668490   -0.0298785353
 H    0.1025840006   -0.0226417749   -2.1751213933
 H    1.6821332879   -0.0320998809   -1.4078327883
 H    1.1499756324   -2.2278727792   -2.4351074374
 H    1.4136427931   -2.3641202224   -0.6976922672
 H   -1.2001009412   -2.7937156417   -2.1900537042
 H   -2.1101531469   -3.4799458340   -0.1122337843
 H   -0.7027744213   -3.7182104875    1.8575804765
 H    0.6521122799   -2.1073297878    2.7276587791
 H    1.7603456749   -0.4892942858    1.1563000517
 H    0.4428677650    0.1507740834    2.0839736032