25

 C   -0.0782555662    1.7270332464   -0.4096563820
 C   -0.2697917575    0.2064416489   -0.4491413839
 C    0.9012695192   -0.5341146109   -1.1015323689
 C    2.2533295836   -0.4177691877   -0.3494413979
 C    2.9665256086   -1.6890648637   -0.7402496817
 C    2.1364267307   -2.5704315629   -1.2921818807
 C    0.7022726190   -2.0727849659   -1.3538895554
 C   -0.1217202282   -2.7722734621   -0.2504935770
 C    0.0478032793   -2.3390413904   -2.7186180558
 H    0.8037296638    2.0054512319    0.1763320637
 H    0.0531091675    2.1352614388   -1.4182291870
 H   -0.9439801640    2.2233717775    0.0400284697
 H   -0.4214120298   -0.1644733547    0.5720695696
 H   -1.1936273832   -0.0210157965   -0.9970561001
 H    1.0596214046   -0.0895441308   -2.0940891954
 H    2.8078627198    0.4868272951   -0.6232831887
 H    2.1101303551   -0.3681762836    0.7413143172
 H    4.0224626525   -1.8530222306   -0.5530724482
 H    2.4065427412   -3.5690052130   -1.6229825680
 H    0.2869772261   -2.5734268585    0.7449212618
 H   -1.1675770788   -2.4476718322   -0.2629498309
 H   -0.1109624360   -3.8575993609   -0.3996447852
 H   -0.0638076487   -3.4138858332   -2.9016244000
 H   -0.9520723539   -1.8926560608   -2.7703172558
 H    0.6475020353   -1.9202513003   -3.5331494095