21

 C    0.4445641715    1.4556537436   -0.0829534537
 C    1.4485328622    0.3596407057    0.1978256548
 C   -0.0059082684    0.0293798128   -0.0324036596
 C   -0.8676241489   -0.5291770871    1.0874898459
 O   -1.1288484630   -1.8913258370    0.7435057130
 C   -0.7307331721   -2.1400995052   -0.6061870416
 C   -0.4571054450   -0.7780735736   -1.2214523218
 C   -1.3755151335   -0.2013519255   -2.2709410672
 C    0.0413157787   -0.5988177004   -2.6211600745
 H    0.1572133325    2.1119918345    0.7325031116
 H    0.4870438344    1.9503430012   -1.0487736990
 H    2.1573522419    0.1113519293   -0.5853129828
 H    1.8413755623    0.2710149870    1.2056032462
 H   -0.3742960378   -0.4938373519    2.0662940527
 H   -1.8203347331    0.0175394287    1.1641959597
 H    0.1753611732   -2.7657442924   -0.6106770292
 H   -1.5278687932   -2.6904810181   -1.1202928253
 H   -2.1869060326   -0.8210357823   -2.6389539213
 H   -1.6050253678    0.8579596241   -2.2204078665
 H    0.7588593829    0.1924805319   -2.8168955372
 H    0.1921448557   -1.4861030952   -3.2280308043