16

 N   -0.1698317665   -1.1297232296   -0.1564977945
 C   -0.0928504791    0.0119650171   -0.0010233622
 C    0.0146266097    1.4559858474    0.2254410657
 N    1.2878203090    1.9702908270   -0.2685839828
 C    1.4463500212    3.3946365899   -0.0906399508
 C    1.7794592039    4.0157411267    1.2996297674
 O    2.9512119667    4.6573254552    0.7618157046
 C    2.8137214044    3.9749134421   -0.4999013373
 H   -0.7977685343    1.9527034973   -0.3197557473
 H   -0.1692564163    1.6423140229    1.2986382810
 H    2.0563176987    1.4676371498    0.1654498083
 H    0.6052269970    3.8965483177   -0.5785554693
 H    1.0700997069    4.7395102766    1.7171948033
 H    2.0304149173    3.2713412355    2.0707257136
 H    3.5880372851    3.2081085583   -0.6462588758
 H    2.8305635962    4.6634997461   -1.3511411540