17

 O   -0.0117282443   -0.0048188284   -0.0193158383
 C    0.0382587823    1.1887558711    0.0048366363
 O   -1.0919597664    1.9678956434    0.1574283999
 C   -0.8237534655    3.4049448739    0.0842550357
 C    0.5507260877    3.4816077341   -0.5778933793
 C    1.9673748029    3.8628510677   -0.0186410053
 C    1.6926282654    2.9401798015    1.1931175570
 C    1.1717412162    2.1698916884   -0.0723707969
 C    2.4968814709    2.5792974031   -0.7716270786
 H   -1.6225455768    3.8385258619   -0.5202558283
 H   -0.8851750698    3.8202858941    1.0931698621
 H    0.4633367519    3.5537132536   -1.6661726827
 H    2.4386910927    4.8465438008   -0.0113102871
 H    2.5626896683    2.4979148070    1.6819718077
 H    0.9586728116    3.2703242252    1.9279693542
 H    2.4790271683    2.6069096833   -1.8633344010
 H    3.4199090746    2.1402377194   -0.3884359655