17

 O    0.1206983822    1.3127203347    0.1984036545
 C    0.1153488785   -0.0259910679    0.0499147918
 N    0.1504605300   -0.6927095010   -1.0760890789
 C    0.1275847049   -2.0336525930   -0.7017164408
 C    0.0841929407   -2.1424146487    0.6572405646
 C    0.0037286385   -3.0849343284    1.8198990441
 C    0.3889464792   -2.1635691226    3.0163433553
 C    0.0033904196   -0.7263005805    2.5791510358
 N    0.0827212015   -0.8356602820    1.1321775483
 H    0.1625486955    1.6773044445   -0.6945882873
 H    0.1497356461   -2.8156545076   -1.4442976300
 H   -1.0116698407   -3.4827895665    1.9469553690
 H    0.6749592796   -3.9435309690    1.7355753398
 H   -0.0979663866   -2.4520699661    3.9502537308
 H    1.4701059610   -2.2095641179    3.1759744365
 H   -1.0135662471   -0.4593687347    2.8916809074
 H    0.6870426970    0.0357004070    2.9610405992