18

 C   -0.2555458511    1.4243406669    0.0628039903
 N    0.0322030782   -0.0009821037    0.1024932006
 C    1.3930185107   -0.4212830537   -0.2073508019
 C    0.8573571811   -0.5646776148    1.1770276702
 C    1.4249317062    0.2374453398    2.3292543345
 C    0.4338646451    0.4033369319    3.4775922208
 O    1.1061235653    1.0710886222    4.5341404317
 H    0.5804154938    2.0770310072    0.3599664557
 H   -0.5354191661    1.6923209533   -0.9613151040
 H   -1.1098304125    1.6434619300    0.7120401664
 H    1.4956722513   -1.2820442903   -0.8637195643
 H    2.1416730858    0.3563972496   -0.3621003747
 H    0.5125497257   -1.5562239180    1.4732971875
 H    2.3102432524   -0.2810752058    2.7177483858
 H    1.7652137568    1.2247161640    2.0039730371
 H   -0.4442226224    0.9746670812    3.1374215002
 H    0.0716396249   -0.5880777406    3.7961871701
 H    0.4883406748    1.1803938607    5.2627306439