18

 C   -0.0900265849    1.5795177800    0.0757557730
 C    0.0139475014    0.0767038861   -0.0207453446
 O   -1.1332729734   -0.6128879788    0.4086900930
 C    0.6618487055   -0.6491361837   -1.1763563854
 C    1.6221095829    0.0730792419   -2.1031523459
 C    2.7795510407    0.5439830017   -1.2014484441
 O    3.6989892088    1.2676444897   -1.5086091245
 N    2.5565087341    0.0132345703    0.0499509081
 C    1.3163537179   -0.6839225630    0.1971430497
 H    0.8231387338    2.0865307399   -0.2422277483
 H   -0.9182692795    1.9399005256   -0.5423236359
 H   -0.2883848759    1.8806090839    1.1120611876
 H   -1.2569234025   -0.4248294452    1.3462734328
 H    0.1325309418   -1.5245474997   -1.5302864245
 H    2.0176730948   -0.5938015705   -2.8755184934
 H    1.1976107241    0.9410515559   -2.6154390374
 H    3.1082747843    0.3373594401    0.8289195941
 H    1.3120414661   -1.5807087343    0.8073960958