17

 O    0.1345687193    1.3847996541    0.2610407261
 C   -0.0109804680   -0.0088566138    0.0512009692
 C   -1.4443906547   -0.4600997467   -0.0924795653
 C   -2.2593634995   -0.1197957657   -1.3276417780
 C   -1.3682113663    0.2818520163   -2.4998777205
 C   -0.4504624655   -0.9662255376   -2.1761750272
 C   -1.5655429726   -1.4656507754   -1.2154974341
 C    0.6464951754   -0.4258993348   -1.2872992271
 O    1.8059944505   -0.2291819947   -1.5526329069
 H    1.0647115962    1.5887317844    0.0982834441
 H    0.4693746530   -0.5810042527    0.8632130567
 H   -2.0268494773   -0.6345474530    0.8043428215
 H   -3.3133935915    0.1098315108   -1.2290014622
 H   -1.8683736554    0.1323284834   -3.4589441589
 H   -0.9034223451    1.2719072189   -2.4785839544
 H   -0.1192854276   -1.5673710673   -3.0191943685
 H   -1.9551202009   -2.4699724462   -1.1233762045