14

 C   -0.0853257593    1.5298834339   -0.0671353193
 C    0.0139402800    0.0251856186    0.0170495148
 C    1.3169952035   -0.6795993419   -0.2200987963
 C    0.7258458380   -0.6549145874    1.1846211236
 C    1.3523171316    0.1126491318    2.2199996118
 C    1.8710558923    0.7507738838    3.0988481594
 H    0.8154252816    2.0066504612    0.3286416892
 H   -0.2144710614    1.8526818577   -1.1058545449
 H   -0.9377141598    1.9028728741    0.5105103438
 H   -0.8727214119   -0.5057599359   -0.3192992665
 H    1.3202747774   -1.6294451806   -0.7430391017
 H    2.1971964290   -0.0681311278   -0.3855230258
 H    0.2824238166   -1.5864308169    1.5246235964
 H    2.3324031922    1.3107588395    3.8736249455