21

 C    0.0108056319    1.4869143031   -0.0647339237
 C    1.3220573412    0.7593330878    0.0636148859
 C   -0.0037660529   -0.0050323834    0.0904641979
 C    0.3626287951   -0.7018612059   -1.2350320332
 C   -0.5081740467   -0.5444234391   -2.4410470355
 C   -0.0193153076   -0.1128132566   -3.6053081441
 C    1.4237429217    0.3016043226   -3.7793154570
 C    1.9784850131    0.9586373975   -2.4989186339
 C    1.7241183486    0.0882091416   -1.2627584488
 H   -0.2887862818    2.0461560812    0.8159537142
 H   -0.2921511061    1.9452666665   -1.0025958854
 H    1.9989200304    0.9627852079    0.8851664760
 H   -0.4912112056   -0.4905479646    0.9275625365
 H    0.5518866175   -1.7663153596   -1.0522882783
 H   -1.5568710682   -0.8213307124   -2.3502979391
 H   -0.6685607169   -0.0476174608   -4.4750751087
 H    2.0352387708   -0.5727938004   -4.0475247937
 H    1.5160837237    0.9957735206   -4.6220464665
 H    3.0483362460    1.1678255621   -2.6108395835
 H    1.4822334086    1.9270237627   -2.3753987283
 H    2.5561039672   -0.6057048008   -1.1146076207