13

 N    0.0571721935    1.3968126288    0.1171073900
 C    0.0077117804    0.0504430584    0.0451702588
 C   -1.1289330918   -0.7589662938    0.0300050803
 N   -0.6675327068   -2.0652215902   -0.0064952621
 C    0.6758058581   -1.9860853610   -0.0164519148
 N    1.1234611479   -0.7398426986    0.0127500892
 N   -2.4779648529   -0.4373398292    0.0145366221
 O   -3.2957824052   -1.3665209253   -0.0140940198
 O   -2.7764921966    0.7692288611    0.0267334083
 H    0.9309900105    1.8464823668   -0.0970405060
 H   -0.8100148291    1.8899853062   -0.0293653037
 H   -1.2711952171   -2.8711759730   -0.0253003678
 H    1.3052494093   -2.8631054202   -0.0446846445