18

 C   -0.0223992685    1.5290940112    0.0016116502
 C   -0.0236755507    0.0058954152    0.0783306575
 N    0.8531142562   -0.4619469107    1.1391435325
 C    0.9040036125   -1.8421621240    1.3764520945
 C    0.4470639175   -2.8558176517    0.5560306826
 N    0.7677411636   -4.0559746453    1.1633316043
 C    1.4010436281   -3.8217557849    2.3496228934
 C    1.5065953260   -2.4601342946    2.5143932091
 H    0.9914679791    1.9083692737   -0.1562978676
 H   -0.6560963600    1.8761263211   -0.8194930581
 H   -0.4094064501    1.9712523733    0.9273872017
 H   -1.0576730952   -0.3662123292    0.1986181779
 H    0.3443390072   -0.4095145206   -0.8690207691
 H    0.7235049922    0.0627950100    1.9947145161
 H   -0.0632712548   -2.8301253721   -0.3911805187
 H    0.5545446841   -4.9620462580    0.7886271768
 H    1.7290459301   -4.6338132171    2.9784612661
 H    1.9689356627   -1.9520152762    3.3471600608