20

 C   -0.3354385334    1.5553349779    0.0557505600
 C    0.2363776382    0.1460122484    0.0817272201
 C   -0.3889295007   -0.7163602544    1.1685735493
 C    0.3969184531   -0.5351514040   -1.3036886517
 C    1.9124376160   -0.4365715645   -1.0365498666
 O    1.6974943374    0.1987264804    0.2421445940
 C    2.6607174678   -1.7650696392   -0.9635950918
 N    3.0268942587   -2.1201525318    0.2942206031
 O    2.8729552931   -2.4203204497   -1.9659941986
 H    0.1533406674    2.1591071502   -0.7140055820
 H   -1.4103590984    1.5317292824   -0.1537325869
 H   -0.1853216945    2.0467432421    1.0224100563
 H   -1.4651936911   -0.8282402068    0.9986765315
 H    0.0636107696   -1.7117079721    1.1818985112
 H   -0.2452163813   -0.2567907667    2.1521433685
 H    0.0085374478   -1.5517883528   -1.3774216522
 H    0.0389886025    0.0504659680   -2.1510839048
 H    2.4611534177    0.2131499269   -1.7276470070
 H    2.8629382835   -1.4743923197    1.0492233167
 H    3.5840128666   -2.9467383546    0.4304884108