15

 O   -0.0327272306    0.0171196677    0.4148619659
 C   -0.0466458618    1.1735383137    0.0775469680
 C   -1.3166665517    1.9793630809   -0.1633218469
 O   -1.2452788337    3.1546200631    0.6409598683
 C   -0.2637185007    4.0524067606    0.1619610851
 C    1.0922059096    3.3843359615    0.0088670338
 C    1.7222524659    2.5769020534    1.0959376204
 N    1.1359053794    1.9261159097   -0.0798460964
 H   -1.4414954433    2.2331948246   -1.2282134858
 H   -2.1767049417    1.4012446823    0.1748348870
 H   -0.5690846081    4.4596549112   -0.8165573861
 H   -0.2221184696    4.8813828777    0.8749623594
 H    1.7579796878    3.8805780882   -0.6953795567
 H    2.8037225550    2.5209427628    1.1774048011
 H    1.1786415232    2.4739989924    2.0313325029