19

 C   -0.2573210887    1.3495520701    0.0312599426
 O   -0.2014779263   -0.0429268259   -0.1875074964
 C    0.6544417286   -0.5147782023   -1.2184130818
 C    0.2247681485   -0.0186162108   -2.6106251907
 C    2.1349718069   -0.1972424544   -0.9440037564
 C    0.5002265447   -2.0522681477   -1.2085581763
 O    1.1254711670   -2.7430696819   -1.9845454485
 C   -0.4121042998   -2.6418678433   -0.2490711696
 C   -1.1486153779   -3.2104216770    0.5146679018
 H    0.7139607803    1.7689683066    0.3268769052
 H   -0.6234281984    1.8998752986   -0.8461505589
 H   -0.9624129130    1.5013641004    0.8520204962
 H    0.4410441602    1.0458602785   -2.7343400895
 H    0.7703541220   -0.5720679056   -3.3777720622
 H   -0.8475779510   -0.1777205837   -2.7577276450
 H    2.4016941257   -0.4783989788    0.0790744971
 H    2.7616177304   -0.7615369406   -1.6377274225
 H    2.3422788418    0.8675312398   -1.0800352224
 H   -1.8020048510   -3.7016379620    1.1939012172