15

 N   -0.2580691311    1.3203709662   -0.0130224226
 C   -0.0171220481   -0.0159552644   -0.0431471048
 O    1.0884171596   -0.5090763654   -0.1593921469
 C   -1.2783962861   -0.9070988732    0.0074309840
 C   -0.9042143895   -2.3928985422    0.1402662708
 O   -2.0519895819   -3.2283921183    0.0875504961
 C   -2.3030439446   -0.5023936252    1.0601274028
 O   -2.6208664451    0.6363499076    1.3159840791
 H    0.5473308719    1.9221197691    0.0651600172
 H   -1.1496638941    1.6402181660    0.3429967386
 H   -1.7936472913   -0.7612927887   -0.9558929726
 H   -0.1597433052   -2.6515977647   -0.6178205896
 H   -0.4411967020   -2.5721360783    1.1152985848
 H   -2.3479225919   -3.2770783868   -0.8269928697
 H   -2.7766516605   -1.3546656017    1.5839698527