19

 C   -0.0487107084    1.4394970573    0.2436216894
 O    0.0319984192    0.0280784847    0.2858410607
 C    0.5552735447   -0.5444851099   -0.8948647102
 C    1.0527900527   -1.9602592556   -0.5634221676
 C    2.1836036290   -1.9288743906    0.4360250638
 C    3.3341134273   -2.8337151634    0.3335463423
 O    3.4427039263   -1.4644872783   -0.0615049474
 C   -0.5191377650   -0.6213903795   -1.9781023037
 O   -0.2975769376   -0.8475878177   -3.1382269942
 H    0.9442509505    1.8940317730    0.1139861024
 H   -0.6993168560    1.7944873751   -0.5696881693
 H   -0.4704833163    1.7663903556    1.1965518720
 H    1.4041480439    0.0395618192   -1.2821741368
 H    0.2200389976   -2.5482819309   -0.1582660398
 H    1.3836516131   -2.4312322851   -1.4936304529
 H    1.9232838849   -1.5331791810    1.4167078005
 H    3.8903418087   -3.1088718926    1.2285254747
 H    3.3756480135   -3.5583329982   -0.4788953369
 H   -1.5533208480   -0.4853377923   -1.5830046568