19

 C    0.1786284574    1.5185588417   -0.4224192952
 C    1.5837076707    1.5064694478    0.2604868985
 C    1.3256105328    0.0618006521    0.7779123974
 C   -0.0417953940    0.0630282057    0.0390443406
 O    0.4499687732   -0.9052064119   -0.9170265604
 C    1.6930604816   -1.0539842394   -0.2116148147
 C    3.0036789424   -1.1247236964   -1.0139098096
 O    3.3715388331   -2.3637393691   -0.3730777005
 C    2.0815749012   -2.4689631136    0.2633670100
 H   -0.5160664530    2.2281494209    0.0350867730
 H    0.1566204100    1.6477778763   -1.5064343279
 H    2.4434043282    1.6162106594   -0.4056220187
 H    1.6843887771    2.2393459481    1.0633603379
 H    1.4691465403   -0.1404644185    1.8386606549
 H   -1.0052046131   -0.2296644706    0.4633717610
 H    2.8371295645   -1.2430782617   -2.0925826090
 H    3.7425916823   -0.3330425356   -0.8408614565
 H    2.1632619709   -2.6315623891    1.3450135923
 H    1.4544594444   -3.2513065661   -0.1838197832