16

 C   -0.1210381795    1.5268280187   -0.0111819331
 N    0.0855716582    0.0871351070    0.1362286116
 C    1.3383865614   -0.5631191468   -0.1700072153
 C    2.5343628113    0.2245918987    0.3558294296
 O    3.5949125369    0.5017226318   -0.1209261627
 C    1.9422056541    0.3350403300    1.7813089602
 C    0.7519399497   -0.4926797605    1.2723300009
 C    0.1215980965   -1.6328120092    1.9737073787
 O    0.4639783484   -2.0191084619    3.0638250372
 H    0.7255187450    2.1524645151    0.2971669143
 H   -0.3333652459    1.7297936153   -1.0638531541
 H   -0.9983357400    1.8092608814    0.5769369528
 H    1.3511111002   -1.3778966147   -0.8870210058
 H    2.5610855624   -0.2178853768    2.4926759266
 H    1.7290567116    1.3270969503    2.1847186450
 H   -0.6979786404   -2.1105557882    1.3960692040