17

 C   -0.2803434334    1.3255451247   -0.1898132730
 N    0.1373322163   -0.0509461483    0.0444362341
 C    0.6743019090   -0.7842595242   -0.9832825824
 C    0.7432562707   -2.1275780225   -1.2337556650
 C    0.1538033982   -3.2327460787   -0.4198846993
 O   -1.1136131006   -2.8621800318    0.1404309217
 N    1.4779253405   -2.3152084826   -2.4032155067
 C    1.8027637861   -1.1312779289   -2.7881739884
 O    1.3420739860   -0.1296705533   -1.9711462547
 H    0.5722364522    1.9145588137   -0.5346110478
 H   -1.0849093017    1.4207650667   -0.9347404375
 H   -0.6266414798    1.7485613810    0.7554651639
 H   -0.5199118321   -0.6185877554    0.5652209525
 H    0.0795006187   -4.1386929219   -1.0357187524
 H    0.7736177067   -3.4812011634    0.4501201110
 H   -1.7087607531   -2.7013717687   -0.6004221429
 H    2.3647750764   -0.8211487163   -3.6532913831