15

 O    0.0177097594   -0.0365357973    0.4015570226
 C   -0.0098286502    1.1576031306    0.1436861158
 N   -1.1907420740    1.8210915375   -0.0631357461
 C   -1.3521276993    3.2683353058   -0.0687191589
 C   -0.7364012812    3.9130108143   -1.2854601444
 C    0.5646081117    3.7729415796   -1.5691713469
 C    1.5078463370    2.9963890613   -0.7765755262
 C    1.2566477566    1.9279812669    0.0042524964
 H   -2.0087715859    1.2400155144    0.0429214267
 H   -2.4226310149    3.4778177136   -0.0249110834
 H   -0.9021943047    3.7007592103    0.8385382658
 H   -1.3712917599    4.5170936508   -1.9262290991
 H    0.9790478688    4.2943271631   -2.4283291824
 H    2.5483078970    3.3045233049   -0.8634507124
 H    2.0853522895    1.4298634843    0.4968596424