17

 N   -0.0306693749    1.3086202398    0.2604588719
 C    0.0829380363    0.0764260774   -0.3301796463
 O    1.1326371400   -0.2907341707   -0.8304793121
 C   -1.1712422905   -0.7438383688   -0.2724505540
 C   -1.6853452020   -1.6306227195   -1.3921206433
 C   -0.5565747659   -2.3492369892   -2.1464367037
 C   -0.0889466710   -2.9855812110   -0.7977444561
 C   -1.2280475322   -2.2473066140   -0.0789768216
 H    0.7496579664    1.9385708437    0.1673120269
 H   -0.9168889803    1.6873424118    0.5439769345
 H   -1.9904202927   -0.2515030092    0.2474233278
 H   -2.6920796297   -1.4771354474   -1.7643289590
 H   -0.9506472455   -3.0954251685   -2.8402966386
 H    0.1657323503   -1.7154895407   -2.6605139681
 H   -0.2404557690   -4.0674072224   -0.7791292634
 H    0.9242406005   -2.7496722669   -0.4743443181
 H   -1.8231073200   -2.6491256345    0.7333923833