19

 C   -0.1522556006    1.5948448095   -0.0190570978
 C    0.0505803342    0.0910152078   -0.0245319580
 C    0.7573159872   -0.5776646791   -1.2277340474
 O    1.9218858409    0.1612570918   -1.6700479407
 C    2.8004165564   -0.5835494203   -0.7884796982
 C    3.2803278511    0.2365510557    0.3979379391
 O    2.1843432777    0.3272162364    1.3077373539
 C    1.1318953698   -0.5465752686    0.9202347482
 C    1.6260541799   -1.4264618547   -0.2624937951
 H    0.7846908356    2.1077993942   -0.2445205968
 H   -0.8925422876    1.8925011001   -0.7696096397
 H   -0.5037497459    1.9398364025    0.9585587696
 H   -0.8955875497   -0.4382594369    0.1476907120
 H    0.1678040279   -0.9495744876   -2.0685469438
 H    3.6070661425   -1.0708212103   -1.3448047672
 H    4.1335239475   -0.2568412064    0.8874595449
 H    3.5859186796    1.2435300957    0.0922463343
 H    0.7461004791   -1.0383234150    1.8162840876
 H    1.6733472045   -2.5098441148   -0.1957041549