21

 O   -0.2027073054    1.4503238011    0.0161172869
 C   -0.2436238047    0.0544854317   -0.1039332416
 C   -0.4593261571   -0.8604066072    1.0648728492
 C   -1.3696697982   -0.1893634182    2.1009638075
 C   -2.4807889122   -0.0334094433    1.0242677957
 C   -3.8492281878   -0.7446388232    1.2110926659
 C   -4.5243307918    0.4212424869    0.4398304645
 C   -3.2498409636    1.2720399492    0.6901326695
 C   -1.5478875560   -0.6634600144   -0.0207090139
 H    0.6208807905    1.6857254737    0.4563959830
 H    0.4286260310   -0.3471824572   -0.8640233413
 H    0.1807759355   -1.7159837392    1.2483640392
 H   -1.6736646122   -0.8632632581    2.9062296087
 H   -0.9854278763    0.7375972999    2.5385927717
 H   -3.9495489896   -1.7564818132    0.8070764392
 H   -4.1456269525   -0.7615647130    2.2652750405
 H   -4.6583552565    0.1871496955   -0.6200829032
 H   -5.4723157384    0.7984687217    0.8305401869
 H   -3.3529585233    1.9079967207    1.5757583690
 H   -2.8614243591    1.8778525281   -0.1293350145
 H   -1.8724099722   -1.3401380015   -0.8046567530