18

 O    0.1028614138    1.4263945374    0.0031771529
 C    0.0949021783    0.0174317649    0.0864273485
 C   -1.3284019820   -0.5281627214    0.0131252576
 O   -1.8569175548   -0.0375144987   -1.2197345276
 C   -1.3808497927   -2.0429459879    0.0718289845
 C   -1.8710296794   -2.7304686199    1.3341185318
 C   -2.7288409357   -2.6988827775    0.0968767177
 O   -3.8240419333   -1.8225299644    0.0210360387
 H   -0.4899169001    1.6383073291   -0.7289559527
 H    0.6898287651   -0.4383504969   -0.7232683223
 H    0.5543836458   -0.2612523310    1.0403363847
 H   -1.9016648681   -0.1082884234    0.8512080896
 H   -2.7939934109   -0.2656120385   -1.2216287552
 H   -0.6142767607   -2.5485313887   -0.5088977846
 H   -1.4242820485   -3.6725530359    1.6321940134
 H   -2.1660106026   -2.0863290305    2.1564855563
 H   -2.8569514250   -3.6259045458   -0.4599394906
 H   -4.5306628792   -2.1567065009    0.5824850471