20

 C    0.0995865847    1.4508140519    0.1570446068
 N    0.2042611677    0.0140163008    0.0196957118
 C    0.4441124806   -0.5934228751   -1.1725183512
 O    0.5422568470    0.0027895036   -2.2364913975
 C    0.5819224771   -2.0943941315   -1.0693587234
 O    0.2101640491   -2.6521856686    0.1717025178
 C    0.3659143428   -2.9123819433   -2.3216651591
 C    1.7518633433   -2.7897234534   -1.7426399138
 C    2.8625661609   -2.0580496071   -2.4602535985
 H    0.9384126474    1.8645429878    0.7293599470
 H    0.1139193141    1.8774824673   -0.8468395849
 H   -0.8340685827    1.7333664955    0.6555748901
 H    0.2051594111   -0.5809761957    0.8331557413
 H   -0.7466244139   -2.7715198660    0.1647072690
 H   -0.1605011236   -3.8537765937   -2.2057263179
 H    0.1418659087   -2.3448286894   -3.2180058834
 H    2.0668599309   -3.6530914424   -1.1621810699
 H    2.4824133785   -1.1701454380   -2.9676681300
 H    3.6446032563   -1.7449957335   -1.7597604876
 H    3.3260445799   -2.7151584391   -3.2041378269