19

 O   -0.0631342219    1.3117764859   -0.4575371561
 C   -0.0427288353   -0.0165226219    0.0523690860
 C   -1.4547916095   -0.5210482097    0.1015626373
 C   -2.4837179082    0.1582785062    1.0112969951
 C   -3.5266782731   -0.9533858075    1.3175578996
 C   -3.2498457410   -1.9813188187    0.2272019333
 O   -3.4290856602   -1.3136075755   -1.0702259566
 C   -2.0138646437   -1.1616339387   -1.1596030574
 C   -1.7178698024   -2.0182808410    0.0292777238
 H    0.8241101717    1.6752263450   -0.3803113534
 H    0.5687185224   -0.6788017789   -0.5835551282
 H    0.3956660050   -0.0421894577    1.0636980547
 H   -2.0047103235    0.5322678123    1.9216370381
 H   -2.9439129176    1.0137994326    0.5115558190
 H   -3.3591433260   -1.4020209535    2.3040868625
 H   -4.5583921965   -0.5930770751    1.2789869975
 H   -3.8056597454   -2.9193873023    0.2711457264
 H   -1.5667414322   -1.0763077618   -2.1434575832
 H   -1.0205026826   -2.8250834098    0.2100114717