20

 C    0.9600168428    1.0230411653   -0.0268376081
 C    0.0256519592   -0.1479981895    0.0790459517
 N   -0.5981044700   -0.4174901760    1.1488593057
 O   -0.0171483369   -0.8149563229   -1.1112565231
 C   -0.8512459374   -1.9625290534   -1.2096222887
 C   -0.7107084774   -2.4942510696   -2.6246521412
 C    0.5745004474   -3.2725362868   -2.9767699075
 C   -0.3841118553   -4.4573201169   -3.2146410174
 O   -1.5274716110   -3.6697037082   -2.8073435469
 H    1.9649287127    0.6825183761   -0.2953306077
 H    0.6265194063    1.7024231271   -0.8174375623
 H    0.9918587214    1.5518796802    0.9244430853
 H   -1.1942259606   -1.2397494448    1.0656149033
 H   -0.5461605972   -2.7290107585   -0.4842884655
 H   -1.9005307309   -1.7020869018   -1.0147821837
 H   -0.9735792549   -1.7018835594   -3.3375039288
 H    1.1194643740   -2.9161088176   -3.8510114161
 H    1.2707938167   -3.3943936253   -2.1449751943
 H   -0.4724215876   -4.7884464874   -4.2562368790
 H   -0.2457018613   -5.3355885506   -2.5738912055