10

 O   -0.0824989309    0.0076755992    0.0037915194
 N   -0.0189502154    1.2311072708    0.0070518763
 O    0.9933578471    1.9053084242    0.0025212182
 C   -1.3060437205    1.9209829237    0.0170978175
 N   -1.3496388942    3.2295102083    0.0211845447
 O   -2.6918280862    3.5220905512    0.0304592116
 C   -3.4075547118    2.3798579424    0.0316090948
 C   -2.5803853273    1.3053181711    0.0232122869
 H   -4.4794127715    2.4994914011    0.0386912454
 H   -2.8093553792    0.2551146781    0.0215342453