20

 C    0.0378705342    1.5151191554   -0.0686624312
 C    0.0068674084   -0.0109305643    0.1017521759
 C    0.7163660507   -0.4249614952    1.3984472414
 C   -1.4403763356   -0.5219410739    0.0196956029
 C   -1.6311922524   -2.0486941166   -0.0413481735
 O   -2.8503892969   -2.2555799306    0.6572980855
 C   -2.8389623512   -1.2980457623    1.6833126341
 O   -2.1957115132   -0.1426734641    1.1793721884
 H    1.0651774843    1.8920727958   -0.0483119813
 H   -0.4141435195    1.8196979828   -1.0184972233
 H   -0.5187291083    2.0015474787    0.7387703367
 H    0.5384364301   -0.4602076617   -0.7505294062
 H    0.7812245514   -1.5108952360    1.5150329838
 H    1.7383789568   -0.0339945725    1.4141207461
 H    0.1853643557   -0.0228756425    2.2660576737
 H   -1.9219365909   -0.0635847013   -0.8562727385
 H   -1.7484230537   -2.4282596198   -1.0583907661
 H   -0.8035707301   -2.5845759480    0.4465438599
 H   -3.8733652176   -1.0626714202    1.9558956369
 H   -2.2920889720   -1.6721611135    2.5677490646