17

 N   -0.0197903200   -1.1898086178   -0.0451705566
 C    0.0000166824   -0.0345581547   -0.0187664797
 C   -0.0412944113    1.4221555540    0.0052290440
 C   -0.1609139638    2.0695703034    1.4136498257
 C    1.3688959993    1.7506478373    1.4709126792
 N    1.3484525493    2.0502799571   -0.0349131392
 C    1.0231415378    3.5074647036    0.0548296074
 C   -0.3254165497    4.0607850428   -0.3145892750
 C   -0.0829746650    3.5760383870    1.0966007563
 H   -0.7156722807    1.7404626600   -0.7882573065
 H   -0.8875819792    1.7262506116    2.1504013850
 H    2.0102587629    2.4160886778    2.0513780269
 H    1.6221020568    0.7045221107    1.6528901768
 H    1.8989375851    4.1436159635    0.0461698120
 H   -0.3374087431    5.1413840185   -0.4233985394
 H   -1.0091735732    3.5724340716   -0.9986396634
 H   -0.0901632276    4.2730893136    1.9258622166