15

 C   -0.1620575425    1.4876598794    0.0378805689
 C    0.1368139615    0.0145634017   -0.0247305429
 O    1.2310584854   -0.4879724303   -0.0227397665
 O   -1.0275281655   -0.6916314339   -0.0856745453
 C   -1.0468333920   -2.0583218944   -0.1497584934
 C   -2.1698189611   -2.8532436695   -0.2110208542
 C   -1.6420851009   -4.1604262264   -0.2611146012
 N   -0.3127813095   -4.1734622469   -0.2333463394
 N    0.0362238721   -2.8706952843   -0.1649738369
 H    0.7736008055    2.0425826583    0.0855825877
 H   -0.7344443059    1.7909300808   -0.8432230870
 H   -0.7748690209    1.7079011944    0.9164637722
 H   -3.1958663346   -2.5274632061   -0.2177706537
 H   -2.1832979950   -5.0933928898   -0.3164644805
 H    0.9968506036   -2.5735860430   -0.1292924076