17

 C   -0.1258916061    1.4092200025    0.0747872697
 O    1.3414838956    1.4507585182   -0.0065889960
 C    1.3690829175    0.1677052111   -0.6727939997
 C    1.9372477748    0.0436658293   -2.0886670058
 O    2.3927974355   -1.2969032259   -1.8089114614
 C    2.0785796422   -1.1939021185   -0.3995558666
 C    0.9427759337   -2.1636531184    0.0402389621
 C   -0.2953456441   -1.2786974022    0.1768022258
 C   -0.0463208534   -0.0561836510   -0.2804585091
 H   -0.4998407855    1.6586357414    1.0722787255
 H   -0.5694524320    2.0808107245   -0.6693578598
 H    1.2377422103    0.0868903377   -2.9315578329
 H    2.7739288836    0.7325703848   -2.2661897814
 H    2.9780425809   -1.2443717899    0.2217705732
 H    0.8494294113   -2.9642647675   -0.7023963626
 H    1.1543968599   -2.6454399434    1.0028554815
 H   -1.1788684441   -1.6048815726    0.7138831374