23

 C   -0.1594532236    1.5731508070   -0.0628481819
 C   -0.1478053679    0.0827636890    0.2702746564
 O   -0.1020677366   -0.6625556174   -0.9559041403
 C    1.0606023351   -1.4834367905   -1.0046992743
 C    2.0307760574   -0.8976428920    0.0192566867
 C    1.0622029019   -0.4111943017    1.1121390184
 C    1.6414581365    0.5772768236    2.0958638790
 C    1.0251169683    0.7514517371    3.4636314346
 C    2.3718442763    0.0870644571    3.3216032844
 H    0.7795420815    1.8861977609   -0.5309963736
 H   -0.9689734414    1.7796270975   -0.7683139809
 H   -0.3209783006    2.1766782230    0.8355881877
 H   -1.0867183956   -0.1681737396    0.7823671874
 H    0.8050867710   -2.5241496731   -0.7472688576
 H    1.4444006571   -1.4772686433   -2.0304313842
 H    2.7601968666   -1.6236877977    0.3866971822
 H    2.5817845201   -0.0519777483   -0.4082711272
 H    0.7276575134   -1.2922347624    1.6767976008
 H    2.0433759755    1.4797403210    1.6433945955
 H    0.9837439064    1.7479075717    3.8892192010
 H    0.1773234991    0.1248240560    3.7208178940
 H    2.4264034707   -0.9847416658    3.4838684230
 H    3.2514604987    0.6293825877    3.6499968089