18

 C   -0.0569153667    1.4693270793    0.0265491090
 C   -0.0312140301   -0.0323505279    0.0115134968
 C    0.8222850238   -0.9833526521   -0.9085144825
 C    2.0061074980   -0.9886137498    0.0782342843
 C    0.7562633468   -0.9948517277    0.9804382328
 C   -0.0248210416   -1.9321863145    0.0014116419
 C   -1.2548750048   -0.9951471431   -0.0586904238
 C   -2.1769827297   -0.9959768735    1.0669893916
 N   -2.8979811324   -0.9845394215    1.9715394201
 H    0.9574024167    1.8776440099    0.0876722058
 H   -0.5250414661    1.8657531071   -0.8809257743
 H   -0.6228518252    1.8399553536    0.8875980563
 H    0.8250174219   -0.9797583772   -1.9998908646
 H    2.6255493097   -1.8902786194    0.0937251755
 H    2.6346654025   -0.0935675484    0.1048257075
 H    0.6847491271   -1.0037794331    2.0680891209
 H   -0.0158733328   -3.0215106868   -0.0032420110
 H   -1.8081036870   -0.9912781049   -1.0037658263