18

 C    0.1907576042    1.4622373049    0.0359750738
 C    0.0301516506   -0.0248391095    0.0428845232
 C   -0.9856113030   -0.7848110933    0.8503098913
 C    0.4813619214   -1.0944145076    1.0078431815
 C    1.0659092925   -1.8574400083   -0.2035346109
 C    0.0895669674   -2.1034016480   -1.2960238514
 N    0.6333389083   -0.7459750579   -1.1624110213
 C    2.3865162454   -2.3913760861   -0.1902340457
 C    3.4946626928   -2.8569945095   -0.1310172364
 H    1.2227540871    1.7376337149   -0.2019216809
 H   -0.4599744096    1.9188011477   -0.7191375390
 H   -0.0688683812    1.8869331461    1.0103077922
 H   -1.3866166588   -0.1989651285    1.6727654194
 H   -1.7051453284   -1.4882550333    0.4463910430
 H    1.0189446275   -1.0043010197    1.9420047371
 H    0.4817689253   -2.6077850508   -2.1742737144
 H   -0.9524751239   -2.3197644490   -1.0901597243
 H    4.4751931225   -3.2627185723   -0.0937519472