19

 N    0.2066229980   -1.1010841436   -0.5081261737
 C    0.1043722908    0.0302801784   -0.2866561409
 C   -0.0248114155    1.4475670670   -0.0498832417
 C   -1.1039408902    2.1399595183   -0.8818478025
 C   -2.5159528455    1.7368216826   -0.5123598926
 C   -3.5763253954    1.6974154879   -1.5502664501
 N   -3.0836129814    0.4515173805   -0.9426417108
 C    0.2586349628    1.9444020321    1.3603106392
 C    1.2613403321    2.1952375551    0.2748670111
 H   -0.9911808297    3.2226911442   -0.7452781151
 H   -0.9253364043    1.9360398140   -1.9449752955
 H   -2.8045287710    2.0061268864    0.5026830883
 H   -4.6001396277    1.9585679476   -1.2980522912
 H   -3.2905464584    1.9319459649   -2.5732764828
 H   -2.4451847859   -0.0297388004   -1.5715625324
 H   -0.3487746187    2.7735098800    1.7062382223
 H    0.4925127998    1.2074379253    2.1187262179
 H    2.1829370265    1.6261614349    0.2861890989
 H    1.3498876638    3.1967861049   -0.1311656683