15

 O    1.1368579938    1.7496378943    0.3532371783
 C    0.2785866025    0.7618858258   -0.1432774769
 C    0.7312427648    0.3428276774   -1.5559395927
 C   -0.2782740898   -0.4720260350   -2.3210239396
 O   -1.2897809666   -0.9433909115   -1.8495466861
 C    0.0034821390   -0.7186985207   -3.8113124943
 O    0.9693385812   -0.2877505697   -4.3815608908
 C    0.2327789643   -0.4203146273    0.8130212095
 O    0.8916490197   -0.4225744870    1.8256052223
 H    1.4736667126    1.4011767122    1.1949831762
 H   -0.7552686904    1.1413595908   -0.2173124009
 H    0.9674881482    1.2444921508   -2.1319815068
 H    1.6770988687   -0.2147337534   -1.5183540535
 H   -0.7791105280   -1.3366928640   -4.2989075934
 H   -0.4312950699   -1.2577948329    0.5358644786