17

 C   -0.8970568736    1.1580840420    0.4309522818
 C   -0.1640661993   -0.1419836433    0.1694603094
 O    0.7858545152   -0.0301044388   -0.9087053714
 C    1.8800712869   -0.4698557977   -0.0777749542
 C    0.9715949164   -0.6058136547    1.1551333288
 C    1.2617231507    0.3207486926    2.3144470438
 O    2.0622467500    1.2304382858    2.2592870840
 C    0.4802906923    0.0687899611    3.5146652045
 C   -0.1763410610   -0.1628341005    4.4969903183
 H   -0.1966603869    1.9659509638    0.6592455846
 H   -1.4642437839    1.4380041493   -0.4620024670
 H   -1.5992053114    1.0493151227    1.2642217193
 H   -0.8809590654   -0.9506138110   -0.0262418860
 H    2.3183851207   -1.4083231304   -0.4358178709
 H    2.6570160927    0.2943473629    0.0191387185
 H    0.8196422760   -1.6206822854    1.5265007536
 H   -0.7467591495   -0.3496919584    5.3745910729