19

 C   -0.9188814084   -1.7149295635    0.5203275318
 C    0.5704661558   -1.5683387529   -0.0247076217
 C    0.7549167741   -0.4413460175    1.0277150704
 C    1.5274841368    0.8668577989    0.7781802523
 C    0.5721855104    1.5442159992   -0.2195256836
 C   -0.8814113823    1.3154216165    0.3764243728
 C   -0.6585613070   -0.1846977264    0.3935047777
 C   -0.0220765181   -0.4902921077   -0.9793133455
 O    0.6371214943    0.6953580097   -1.3822490670
 H   -1.0129207809   -2.1200943975    1.5301340079
 H   -1.6483634599   -2.1608434743   -0.1614930679
 H    1.2466602329   -2.3954753901   -0.2555924926
 H    0.7554700663   -0.7761789824    2.0680772390
 H    2.5208297687    0.7500203601    0.3375622951
 H    1.6270545237    1.4289171157    1.7131583396
 H    0.8117392603    2.5653738690   -0.5193945830
 H   -1.6557330759    1.6667031602   -0.3099076551
 H   -0.9992960273    1.7911629541    1.3533516468
 H   -0.6539601034   -0.8514351010   -1.7957319268