13

 C   -0.0951311747    1.4545551046    0.0365013515
 C   -0.0182471275    0.0039100817    0.0156529447
 C    0.0420742078   -1.2013658233   -0.0007866186
 C    0.1354085281   -2.5997903075   -0.0259639598
 C    1.1413159443   -3.4841501363   -0.2890069223
 N    0.6700366899   -4.7786913254   -0.1667602941
 C   -0.5741724319   -4.6296954854    0.1580503914
 O   -0.9864610981   -3.3509400197    0.2663962621
 H    0.5999398295    1.8799576814    0.7689529309
 H    0.1480688378    1.8806918100   -0.9432172276
 H   -1.1045016487    1.7858333190    0.3030460486
 H    2.1630018031   -3.2676737753   -0.5555312131
 H   -1.3112292495   -5.3937925239    0.3499696163