15

 O    0.2296250027    1.3717712650   -0.2481604219
 C    0.1147611973    0.0101132524   -0.0968078081
 C    1.0761872026   -0.9024445853    0.6395910026
 O    0.4146042640   -1.8683354436    1.4144520885
 C   -0.7350932298   -2.0855485690    0.6386214586
 C   -1.1940125217   -0.8238466153   -0.0913459721
 C   -0.4731111109   -1.9253291120   -0.8462961044
 O   -0.9530834157   -2.7263711948   -1.8553162547
 C    0.8340088610   -1.0886239203   -0.8575205267
 H    0.1188400526    1.7849468767    0.6163852692
 H    2.0216778340   -0.5613435646    1.0404734759
 H   -1.4285985841   -2.8132497172    1.0392125970
 H   -2.2110985398   -0.4623405245   -0.1433362378
 H   -0.5442812587   -3.5962906608   -1.7744065912
 H    1.5923786864   -1.0540333069   -1.6266445249