22

 C   -0.3727405657    1.7432565949   -0.8434514888
 C   -0.1401341586    0.3605385999   -0.2001709818
 C   -1.4656840834   -0.3720539862    0.1540660947
 C   -2.0068781741   -0.1002760549    1.5721472563
 C   -3.4478645697   -0.6216745170    1.6727001046
 C   -1.1296486479   -0.7551025406    2.6505976733
 O   -1.9957145235    1.3236834819    1.7378688054
 C    0.6766582735   -0.4759490662   -1.0866056636
 N    1.3119058615   -1.1372469312   -1.7909003217
 H    0.5774293508    2.2448385951   -1.0446895396
 H   -0.9087652769    1.6382765018   -1.7914172254
 H   -0.9679498312    2.3541471301   -0.1649209217
 H    0.4425964004    0.5049403108    0.7162739083
 H   -2.2240961016   -0.0797925195   -0.5799573833
 H   -1.3312878692   -1.4525255749    0.0524157262
 H   -3.5005206370   -1.6957329478    1.4681865433
 H   -3.8480596552   -0.4555229171    2.6795815798
 H   -4.0897395993   -0.0983579926    0.9587822992
 H   -0.1004594430   -0.3887495776    2.6107774051
 H   -1.5244540427   -0.5288266113    3.6479314267
 H   -1.1123554991   -1.8439392127    2.5415288734
 H   -2.3176172682    1.5227385450    2.6233316395