18

 C   -0.0067784832    1.5588356142   -0.2558000807
 C    0.0193697352    0.0483107866   -0.0727241512
 C    1.3279563971   -0.6843179635   -0.1786907433
 N    0.6578031338   -0.5709971111    1.1062865896
 C    1.2528966512    0.2601511430    2.1383788934
 C    1.9652384411   -0.6232523424    3.1551074453
 O    2.9093114636   -0.2663918621    3.8086113894
 C   -1.1908595983   -0.6143435771   -0.5048640467
 C   -2.2065034368   -1.1296677832   -0.8892352134
 H    0.9476096122    2.0185458468    0.0086051421
 H   -0.2207131682    1.7982032956   -1.3010551615
 H   -0.7947667712    2.0094036068    0.3556502059
 H    1.3642336418   -1.6789871150   -0.6129506381
 H    2.2111386897   -0.0699498733   -0.3538676337
 H    1.9621020573    1.0243832654    1.7896353921
 H    0.4484145071    0.7769648240    2.6816490508
 H    1.5198325426   -1.6372297180    3.2537366609
 H   -3.1001022251   -1.5991694566   -1.2190002610