21

 C   -0.1722731847    1.5203930782    0.0089750533
 C   -0.0430181309    0.0015553919   -0.1096820201
 C    0.8508242569   -0.4173313772   -1.2796983171
 O    2.1758708363    0.0515335738   -1.1209087049
 O    0.5816398167   -0.5828283975    1.0368196378
 C   -0.1936703899   -0.6170741451    2.2141001548
 C    0.5592042349   -1.4599269603    3.2449767158
 C   -0.0765754990   -1.3858829102    4.6145063606
 O   -0.4365841878   -2.3361973227    5.2588537947
 H    0.8196779898    1.9740172575    0.0722349323
 H   -0.6789647553    1.9212921943   -0.8745944846
 H   -0.7565585083    1.8137028346    0.8851858423
 H   -1.0389432999   -0.4512253061   -0.2472836815
 H    0.8218371331   -1.5139140104   -1.3690711775
 H    0.4693191264    0.0103026611   -2.2124346433
 H    2.4590875715   -0.2542835605   -0.2511589291
 H   -0.3641213768    0.3960650902    2.6112492202
 H   -1.1822423537   -1.0584277770    2.0091356619
 H    0.6261312849   -2.5039380901    2.9310139534
 H    1.5773147603   -1.0537244216    3.3260245628
 H   -0.1927165945   -0.3496939731    5.0119327482