21

 C   -0.1159875416    1.5300688805    0.0371612024
 C    0.0894386630    0.0144433505    0.0164957469
 C    0.9533850261   -0.5213320738   -1.1469882791
 C    1.1925267279   -1.9969243009   -0.7212740984
 C    2.0198080889   -1.3244308130    0.4121155539
 C    2.4053485104   -0.2578840654   -0.6564200785
 C    0.9083655990   -0.6179570997    1.2267432730
 C    1.4208685713    0.3729444732    2.2414053237
 O    0.9381092027    0.5369013451    3.3346686006
 H    0.8280151329    2.0822887970   -0.0082211394
 H   -0.7189330710    1.8410653543   -0.8223954802
 H   -0.6416292871    1.8466831895    0.9435371352
 H   -0.8977489167   -0.4591402381   -0.0083876796
 H    0.6281657789   -0.2557289816   -2.1538532556
 H    0.3243811764   -2.6003103942   -0.4382971482
 H    1.8217094867   -2.5453073974   -1.4259650609
 H    2.7737741428   -1.8728377684    0.9783441204
 H    3.1560418838   -0.6337084706   -1.3549969875
 H    2.6793192078    0.7494128583   -0.3329680701
 H    0.2853077999   -1.3295352023    1.7754994651
 H    2.3098415881    0.9660943371    1.9254372064