20

 C   -0.0807349467    1.6059634279   -0.0574633853
 C    0.1204210791    0.0867364523    0.0109960121
 C    0.7688023046   -0.5242659032   -1.2408798755
 C    0.5434185896   -2.0544685415   -1.3719814298
 O   -0.4045620359   -1.8419432492   -2.4647765223
 C   -0.1955715190   -0.4847557323   -2.4658857756
 O   -0.6558311426    0.3201754026   -3.2129687870
 N    2.1259263376   -0.0630945998   -1.3966269621
 C    2.7548845421   -0.2889140785   -2.6970987998
 H    0.8679151551    2.1535546770   -0.0564349204
 H   -0.6337324670    1.8890654781   -0.9572825864
 H   -0.6442318088    1.9510938954    0.8141427220
 H    0.7445947668   -0.1787057535    0.8727683173
 H   -0.8518351685   -0.3959667781    0.1604091539
 H    1.4049663831   -2.6310831434   -1.7119077870
 H    0.0597036116   -2.5482754345   -0.5267396524
 H    2.1820106277    0.9189043583   -1.1584107544
 H    2.8811025325   -1.3616868685   -2.8754190873
 H    2.1951397894    0.1329840880   -3.5458520809
 H    3.7532898592    0.1556275030   -2.6852133191