15

 C    0.0468979718    1.3889310222    0.0071951845
 O   -0.0154245407   -0.0255287984    0.0031663822
 C   -1.2333104089   -0.5991424150    0.0107841295
 C   -2.4089332681    0.0713301329    0.0221755516
 O   -3.6225602818   -0.5492474596    0.0294633541
 C   -3.6520816742   -1.8925776539    0.0249638749
 C   -2.5497935556   -2.6622729295    0.0137934847
 C   -1.2096259824   -2.0834888762    0.0059272931
 O   -0.1751550704   -2.7291353401   -0.0053026456
 H    1.1061013468    1.6475535355   -0.0002075164
 H   -0.4380353295    1.8134674175   -0.8821746784
 H   -0.4241402023    1.8077566239    0.9066838226
 H   -2.5233959487    1.1447117696    0.0266445372
 H   -4.6700060064   -2.2624254515    0.0313672345
 H   -2.6407685595   -3.7412587375    0.0105040215