15

 N   -0.0034676243    1.3762944534    0.2244810655
 C   -0.0924229355    0.0313309628    0.0206538378
 N   -1.1325817740   -0.6995454808    0.0636762483
 C   -0.6616147878   -2.0720409442   -0.1061974215
 C    0.8288443922   -1.9308470933   -0.4824863134
 O    0.9883642952   -2.1582271467   -1.8749310491
 C    2.2432703545   -2.4068635325   -2.3213832195
 O    2.4975129358   -2.5323933655   -3.4787135225
 O    1.1287314774   -0.5735735874   -0.1873512249
 H    0.7648450613    1.8382874256   -0.2368335574
 H   -0.8864442677    1.8601802889    0.1740070208
 H   -0.7836600360   -2.6464525260    0.8198782682
 H   -1.2033228699   -2.5910996519   -0.9016424832
 H    1.5260060641   -2.5598993095    0.0775609922
 H    2.9821758247   -2.4912325030   -1.5018945513