25

 C   -0.1716272851    1.5038618356   -0.0172512834
 C   -0.0344069624   -0.0210342666   -0.0132552991
 C   -1.3657144457   -0.6848970059   -0.3504752796
 C    1.2037123684   -0.4999713601   -0.8380687770
 C    2.0280213636   -0.5960097657    0.4782123527
 C    0.6899037484   -0.5406914342    1.2704744921
 C    2.9353761016   -1.7787080804    0.6764761787
 C    4.3830873120   -1.7193684170    0.2536074219
 C    4.0260120203   -1.7476057866    1.7194289083
 H    0.7764875519    1.9966008121    0.2233015209
 H   -0.4937086477    1.8663203387   -1.0004474340
 H   -0.9129913278    1.8331033831    0.7201544048
 H   -1.7215580032   -0.3792094386   -1.3418936055
 H   -1.2771741098   -1.7766056300   -0.3500074763
 H   -2.1402970084   -0.4124355679    0.3766883918
 H    1.0387007345   -1.4885947856   -1.2797316496
 H    1.5734052334    0.1700189200   -1.6199859001
 H    2.6017810787    0.3244416634    0.6358003853
 H    0.6526224001    0.0970307480    2.1586606969
 H    0.3490541916   -1.5432572151    1.5503972002
 H    2.4443397066   -2.7401979439    0.5383398272
 H    4.8318105285   -2.6040217174   -0.1847554365
 H    4.7508413137   -0.7858150624   -0.1602134007
 H    4.1540593941   -0.8330104447    2.2896322380
 H    4.2307769626   -2.6515526386    2.2825255629