15

 C   -0.1320848634    1.5358987300    0.0765194020
 C    0.1449766631    0.0743492957   -0.0131333795
 O   -0.7224636918   -0.8676831736    0.6638244254
 C    0.6758010142   -0.9232457373    0.9608180659
 C    1.2952910144   -1.7624099571   -0.1390474926
 C    2.5873527015   -2.4527058641   -0.2194289794
 O    1.3449572202   -3.1645468014   -0.2159820625
 C    0.7228559432   -0.7600045085   -1.1686701445
 O    0.8210914304   -0.6189510516   -2.3495556381
 H    0.7477702256    2.1122188621   -0.2247788899
 H   -0.9564043371    1.8071630420   -0.5903614419
 H   -0.4076229183    1.8127602537    1.0971731999
 H    0.9944497891   -0.7625862286    1.9832937926
 H    3.1253402777   -2.4540801979   -1.1654824925
 H    3.1933556811   -2.5628462135    0.6785564851