17

 C    0.0349579721    1.5649725663   -0.1842766779
 N    1.5513520485    1.5166971780    0.1127177472
 C    1.1930742826    0.2765681942    0.9380903066
 C    1.2259515307   -1.2810956741    1.1766340074
 C   -0.3766882581   -1.1216704510    1.1036626048
 C   -0.0261286988    0.0362063230    0.1071417507
 N    0.3267839076   -0.6298120003   -1.1740127524
 C    1.1390585366   -1.5948767009   -1.0849063233
 O    1.6926200447   -2.0399097899    0.0687657310
 H   -0.4500519937    2.1986728311    0.5610876759
 H   -0.2234434799    1.8769737967   -1.1983522506
 H    1.9963358941    1.2193306909   -0.7547501995
 H    0.9179616481    0.6830083368    1.9164273640
 H    1.6991817249   -1.6997363097    2.0644055616
 H   -0.9301221984   -1.9832524471    0.7225292224
 H   -0.7784702758   -0.7906466109    2.0611594183
 H    1.4666456149   -2.1754392731   -1.9432607764