20

 C   -0.1352807740    1.5308658258    0.0469051906
 C    0.0180508413    0.0047555501    0.0562985058
 C    0.6815000266   -0.4969685658   -1.2438355835
 C    0.9194114756   -1.9954354226   -1.2388032421
 O    0.5681203556   -2.7133230146   -2.1462595719
 C    1.6481705322   -2.5716102454   -0.0222396540
 C    1.6037103784   -1.7113094457    1.2270295099
 N    2.2709412613   -0.3970707573    1.1558499753
 C    0.8025081148   -0.4608482283    1.2709689471
 H    0.8476022639    2.0122725872    0.0102198348
 H   -0.7112709689    1.8648262872   -0.8218216002
 H   -0.6514856992    1.8821028380    0.9469299376
 H   -0.9831344619   -0.4443670757    0.1264090205
 H    0.0780689455   -0.2472115819   -2.1196264763
 H    1.6581146078   -0.0061040529   -1.3393202439
 H    1.2187444092   -3.5592443345    0.1718652125
 H    2.6922994826   -2.7401242538   -0.3189958832
 H    1.7084651478   -2.2626956732    2.1589283436
 H    2.6902721010   -0.1637691094    2.0509921561
 H    0.3632641004   -0.1856553573    2.2287848112