17

 N   -0.3093267999   -0.9725158470   -0.4605948688
 C   -0.1623864598    0.1641127555   -0.3103364493
 C    0.0465287176    1.5970709385   -0.1139645352
 C    1.5221452644    1.9626220817    0.1723227685
 C    2.4332306221    1.6329690806   -1.0437325374
 C    2.5746565980    2.9632811218   -1.7437878941
 C    2.1532727514    3.9741827795   -0.9861759944
 C    1.6533955134    3.5011482500    0.3586148609
 H   -0.2952937870    2.1273691237   -1.0111079626
 H   -0.5906363458    1.9270219277    0.7141657986
 H    1.8381244671    1.4211444887    1.0669545699
 H    3.4127817789    1.2587917376   -0.7172406283
 H    2.0087483093    0.8477653039   -1.6797531820
 H    3.0039984656    3.0575735777   -2.7348498506
 H    2.1859052495    5.0226949122   -1.2598786808
 H    0.7051644586    3.9671450016    0.6545362452
 H    2.3724286465    3.7465726464    1.1518601605