19

 C    0.1657293228    1.4597601687    0.2822442454
 C   -0.1915943641    0.0207876093   -0.1075277548
 C    0.5952328634   -0.4663806404   -1.3095504825
 O    0.3368072276    0.2298931406   -2.4972290513
 C    1.9877242128   -1.0315429536   -1.1365948606
 C    0.8162538770   -1.9509465230   -1.5020318867
 O    0.2904440557   -2.7614237174   -0.4836066561
 C    0.7712770369   -2.5261197168   -2.8203276707
 C    0.7465378714   -3.0771177021   -3.8888689945
 H    1.2252548082    1.5507166536    0.5466939606
 H   -0.0408613013    2.1556585490   -0.5379788642
 H   -0.4229934478    1.7875921320    1.1437355554
 H   -0.0200808796   -0.6566371341    0.7320409846
 H   -1.2579460524   -0.0422446624   -0.3537511881
 H    0.8486826095    1.0453717619   -2.4785391790
 H    2.7177558583   -0.8292083243   -1.9119777992
 H    2.3756225601   -1.1402641079   -0.1292918209
 H    0.7939769160   -3.5832351895   -0.4797872606
 H    0.7057342054   -3.5423036535   -4.8424166469