18

 C   -0.1504650506    1.6941347243    0.1647711131
 C   -0.0118224272    0.1784031558    0.0561158425
 C   -1.3855122530   -0.5555770245    0.0847466869
 C   -2.1534888709   -0.2904891893   -1.1922939731
 O   -1.8980311232   -0.8418546256   -2.2362261708
 N    0.8974803244   -0.2822055205   -1.0329891584
 C    1.7065701611   -1.1341634009   -0.1251572558
 C    0.9630501383   -0.4923796517    1.0549330281
 O    1.0799752873   -0.4812139469    2.2424488370
 H    0.8361096184    2.1627988459    0.1441961388
 H   -0.7276312065    2.0994583406   -0.6726744322
 H   -0.6501311081    1.9695001917    1.0988788946
 H   -1.2181924109   -1.6355938262    0.1573306120
 H   -1.9566534168   -0.2286948027    0.9588039067
 H   -2.9621904873    0.4699427718   -1.1370899823
 H    0.4185455722   -0.7807622456   -1.7758387215
 H    1.5338503756   -2.2175307011   -0.1917328145
 H    2.7859111773   -0.9524605150   -0.1663856312