20

 C    0.4419625654    1.2821410249   -0.2532079005
 C    0.3893056027   -0.2243235563    0.0079925075
 C    0.4293968638   -0.5700387987    1.5010677580
 C    0.4989045437   -2.0863370534    1.7736030800
 C    1.9875353078   -2.3150551573    1.8261864564
 C    2.6552348291   -0.9790928919    2.0553459262
 O    1.5975069971   -0.0343019645    2.1426749170
 N    2.5347599500   -3.4492905223    1.6622882519
 O    3.9367085514   -3.3385425816    1.7635365913
 H    1.3399157096    1.7170753884    0.1931697515
 H    0.4481849581    1.4989905669   -1.3253885494
 H   -0.4252635954    1.7883811465    0.1856378966
 H   -0.5285998977   -0.6520971252   -0.4154036974
 H    1.2236367427   -0.7259045339   -0.5003787580
 H   -0.4257444640   -0.1047841938    2.0029130894
 H    0.0495442555   -2.3186384527    2.7460017530
 H    0.0043393361   -2.6972781598    1.0160610760
 H    3.2337845835   -0.9571583818    2.9855377723
 H    3.3498578405   -0.7544159658    1.2321142341
 H    4.2251477199   -4.2440391177    1.6084272041