18

 C   -0.1580457926    1.5593851886    0.0153200292
 C    0.0611544856    0.0444034366   -0.0194961295
 C    0.8848001538   -0.4915630161   -1.2045070996
 C    1.9555314908   -1.3873308522   -0.5921984710
 O    2.7670265354   -2.0691207784   -1.1680702266
 N    1.8553805834   -1.2727198189    0.7934766592
 C    2.7514128852   -1.9452789543    1.7168073224
 C    0.8239135856   -0.4422803877    1.2153656758
 O    0.5937285662   -0.1781577781    2.3708296946
 H    0.7949196966    2.0951382854   -0.0503204762
 H   -0.7859983182    1.8799400375   -0.8206599149
 H   -0.6443906584    1.8469764371    0.9504051384
 H   -0.9161694236   -0.4517457011    0.0168186996
 H    0.3048117644   -1.0631684163   -1.9324205080
 H    1.3878159948    0.3094871679   -1.7565830726
 H    3.4653634171   -2.5167402839    1.1234246059
 H    3.2740935518   -1.2125146955    2.3366413001
 H    2.1877817420   -2.6126124906    2.3737245331