21

 C    0.0683937809    0.8614988065   -1.3479084034
 C   -0.2627980549   -0.1765511581   -0.2780440363
 O    0.0544458722   -1.5094404417   -0.6499406996
 C    1.4275461467   -1.8509974040   -0.6318284697
 C    1.9781899237   -2.1174690237   -2.0414018740
 O    3.3619252509   -2.4137766456   -1.9680407965
 C    1.1662147085   -3.2194248522   -2.7497445675
 C    1.5749392129   -3.4501091175   -4.1279920955
 C    1.9118733606   -3.6298563873   -5.2674007336
 H    1.1458845459    0.9266789040   -1.5293798098
 H   -0.4258528817    0.6118458259   -2.2915078079
 H   -0.2749743638    1.8515129534   -1.0291724831
 H    0.2390066557    0.0790021666    0.6681097474
 H   -1.3404243702   -0.1823491531   -0.0840964425
 H    2.0370119192   -1.0697568248   -0.1601265402
 H    1.5430477482   -2.7657732936   -0.0285848552
 H    1.9097783650   -1.1991442520   -2.6335104598
 H    3.4616542944   -3.2933771573   -1.5868817320
 H    1.2593123056   -4.1506879365   -2.1701535144
 H    0.1079374439   -2.9389629402   -2.7031903841
 H    2.2102725765   -3.7910738589   -6.2733202123