18

 C   -0.3992742497   -0.5248548502   -1.2657142061
 C   -0.1195124921    0.0675984246   -0.2579515749
 C    0.2531140325    0.8015016069    0.9455254853
 C    1.5915859173    1.5231706478    0.7845994284
 C    1.6972180349    2.8461829276    0.0318330120
 C    1.1314040239    3.6033501424    1.2733493646
 C    2.3090829716    4.5769308174    1.3593257457
 C    2.9010841313    3.2286656500    0.9462830841
 N    1.9701967973    2.4625268468    1.9292524093
 H   -0.6584534026   -1.0543380115   -2.1486584247
 H   -0.5364187307    1.5194549632    1.1981226197
 H    0.3274952479    0.1137586061    1.7977757029
 H    2.3852405412    0.7949523302    0.5794166294
 H    1.5519298142    3.0795233992   -1.0277356555
 H    0.0890436183    3.7612670107    1.5522581416
 H    2.3417886900    5.3796582082    0.6186916835
 H    2.5687649156    4.9329345100    2.3596315875
 H    3.9416351690    2.9198606007    0.8309996472