15

 C   -0.0570026718    1.4219004651   -0.1843733394
 N   -0.0267214569   -0.0299776576   -0.2510990489
 C   -1.0339333965   -0.6795380425    0.1315972596
 O   -2.1513662522   -0.0159874368    0.6079541101
 N   -3.3207879600   -0.6642828891    1.0570409985
 C   -3.2960431040   -1.9405767073    0.9993815385
 N   -2.2589549970   -2.7146718702    0.5508128937
 C   -1.0586778529   -2.1761746517    0.0854822564
 N   -0.0637766136   -2.8385187185   -0.3418369449
 H    0.8929908421    1.8131607938   -0.5534182900
 H   -0.8718691625    1.8373959568   -0.7907137896
 H   -0.2121899383    1.7761582588    0.8426201823
 H   -4.1861744793   -2.4571636550    1.3403241223
 H   -2.3595492910   -3.7181873703    0.5539489417
 H   -0.2395678558   -3.8451961954   -0.3084930201