16

 C    0.0608328840   -1.1275231532   -0.0274913088
 C    0.0007101916    0.0752897949   -0.0192318229
 C   -0.0851748463    1.4883129238    0.0260955095
 C    0.0933835837    2.4235990453   -1.2090845240
 C    0.9899872261    2.5526943118   -0.0229837129
 N    0.0281455819    3.5496004640    0.5989671666
 C   -0.7559746410    3.6099407348   -0.7327643776
 C   -2.0133417038    3.0806586550   -0.0223061861
 C   -0.9726558950    2.4128064905    0.8886504046
 H    0.1170827438   -2.1875078306   -0.0378332082
 H    0.2869726544    2.0271723395   -2.1966367522
 H    2.0613085640    2.5083163220    0.1244633333
 H   -0.7387387876    4.5393499484   -1.3017587099
 H   -2.5422365731    3.8829776854    0.4989612159
 H   -2.7120868885    2.4508792231   -0.5770323863
 H   -1.1644649244    2.1343664954    1.9239983190