17

 O   -0.0633196128    1.4574187178   -0.0740086239
 C   -0.0182221881    0.0605431929   -0.0874700656
 C    0.4879832271   -0.6905460467    1.2085815314
 C   -0.8979259532   -1.3361485820    1.3074881266
 C   -1.2864345521   -2.6538563691    1.9218620021
 C   -1.0456531457   -2.6960252283    3.3620713872
 C   -0.8313296837   -2.7174441151    4.5437225984
 O   -1.8412939576   -0.2520170494    1.3809128170
 C   -1.3666345640   -0.6642736963    0.0830796916
 H   -0.6602616536    1.6960398212    0.6472122919
 H    0.5299994059   -0.2407165962   -0.9830694531
 H    1.2914999214   -1.4002537621    0.9961030588
 H    0.7683658127   -0.0549542075    2.0511372357
 H   -2.3459771461   -2.8386695660    1.7100401293
 H   -0.7180149780   -3.4554049884    1.4320575377
 H   -0.6518444876   -2.7390860434    5.5901445002
 H   -2.1174980349   -0.9397182615   -0.6496836753