17

 O   -0.1885925763    0.0789326338    0.0466039769
 C   -0.0307166349    1.2556639508   -0.0122473998
 O   -1.0111063531    2.2409360489    0.0374670656
 C   -0.0455314215    3.3102267593   -0.2093019514
 C    0.4055764199    4.0258420261    1.0833309027
 C    1.5686381021    3.0103623475    1.2027872234
 C    2.8801888115    3.3425427616    0.4203161812
 C    2.4892499156    2.3285227492   -0.7019443712
 C    1.0895060142    2.2571071841   -0.1071643371
 H   -0.3052575831    3.8671401844   -1.1097097927
 H    0.7170921593    5.0652923703    0.9484418891
 H   -0.3457683774    3.9798589469    1.8745776680
 H    1.7051469068    2.4759391062    2.1424016339
 H    2.9219421905    4.3808448172    0.0799497243
 H    3.8066994764    3.1189770637    0.9517381848
 H    2.5746208029    2.6521552321   -1.7422779318
 H    3.0124620272    1.3748549279   -0.5902474358