12

 N   -0.0363311502   -1.1139941748   -0.0044584137
 C   -0.0069638454    0.0395855198    0.0024355320
 C   -0.0176519008    1.5002075897    0.0116819516
 O    1.3413593974    1.9531890232   -0.0008392165
 C    1.4845931719    3.2806855111    0.0057918423
 N    0.5028604263    4.1408893994    0.0222470711
 O    1.1165501512    5.3725345166    0.0229705896
 N    2.4754914406    5.2528511361    0.0068552864
 C    2.7282337058    3.9766618205   -0.0039489163
 H   -0.5530637751    1.8813223066   -0.8654327043
 H   -0.5330608542    1.8702553016    0.9053613595
 H    3.7339420525    3.5890046303   -0.0177341418