18

 O   -0.1354451881    1.5023198315    0.0557805342
 C    0.0376967982    0.0963246160    0.1292484088
 C   -1.3357941412   -0.5428531927   -0.0307690633
 C   -2.0106599929   -0.2904537784   -1.3897475154
 C   -2.6176741301   -1.6349164968   -1.8177607330
 O   -3.3310205913   -1.8253741639   -2.7599194526
 N   -2.2093050513   -2.6840967561   -0.9145540120
 C   -0.7362755157   -2.8917787402   -0.9834334275
 C   -1.3256274396   -2.0677770026    0.0947826353
 H    0.7269888238    1.9206322017    0.1332187273
 H    0.7104976285   -0.2665726810   -0.6645394455
 H    0.4759286411   -0.2055263503    1.0942321759
 H   -1.9731030809   -0.1466553431    0.7672325604
 H   -2.7858135529    0.4767982939   -1.3594963653
 H   -1.2997984164    0.0247665482   -2.1617186886
 H   -0.4219060100   -3.9117869391   -0.7876908783
 H   -0.1963043687   -2.3996121795   -1.7886669177
 H   -1.4037933027   -2.4944816977    1.0902518573