17

 C    0.0114003336    1.5107886600   -0.2575319849
 C    0.0337813091    0.0292560442    0.0015409283
 O    1.3070245706   -0.6308444066    0.0260157121
 C    0.5487171374   -0.5942417961    1.2431739391
 C    1.1650562685    0.1625692242    2.3505604002
 C    0.8047707648    0.3561034273    3.6716519756
 C    1.8308400707    1.1654142404    4.2038371456
 N    2.7633563711    1.4502351817    3.2980488557
 N    2.3307688343    0.8367064126    2.1815634697
 H    0.7325076768    2.0425571559    0.3663143526
 H    0.2414663392    1.7147676491   -1.3083437829
 H   -0.9866129728    1.9106592787   -0.0495975212
 H   -0.7275208306   -0.5424155373   -0.5329314614
 H    0.1122936282   -1.5502518658    1.5337863687
 H   -0.0703545034   -0.0277158742    4.1705318766
 H    1.9277807459    1.5485046500    5.2091591512
 H    2.8877613665    0.8399004059    1.3427278150