12

 O    0.0751182784    1.3192096596    0.0071579231
 C   -0.0345074942   -0.0107103875    0.0011031509
 C   -1.2035351177   -0.6885749056    0.0040831085
 N   -1.2070347521   -2.0664844560   -0.0028112085
 C   -0.0820907686   -2.6955541823   -0.0121073829
 C    1.2222101123   -2.0441227990   -0.0159996905
 N    2.3343113577   -2.6467621023   -0.0250330734
 O    1.1585952212   -0.6365046549   -0.0085726204
 H    1.0137728346    1.5490118946    0.0031847023
 H   -2.1495874344   -0.1668900728    0.0118607748
 H   -0.0698023071   -3.7810481298   -0.0175845490
 H    3.1196377098   -1.9963735639   -0.0260530579