16

 C   -0.0519251680    1.5155903311    0.0106952877
 C    0.0679175396    0.0045280962    0.0017206120
 O    1.1361138964   -0.5619961242   -0.0120933350
 C   -1.2436480847   -0.7759622963    0.0099646855
 C   -1.0081812804   -2.2966204216   -0.0008793656
 C   -2.2493667370   -3.0496102031    0.0068879700
 C   -3.2935988918   -3.6580885626    0.0135676634
 C   -4.4716597516   -4.3473099568    0.0212567879
 N   -5.4761857867   -4.9311844707    0.0278773625
 H    0.9413037218    1.9652719430    0.0033967334
 H   -0.6191557072    1.8584478364   -0.8618392900
 H   -0.6021141024    1.8493281899    0.8975561974
 H   -1.8274211230   -0.4801940678    0.8902713398
 H   -1.8443291781   -0.4703512327   -0.8554801981
 H   -0.4139586102   -2.5682689155   -0.8805300395
 H   -0.3970612366   -2.5780838852    0.8639853887