19

 C    0.3732056640    0.9639155124    0.6820194853
 C   -0.1890388805   -0.2554783007   -0.0252771667
 O    0.8491241797   -0.8155515697   -0.8289693589
 C    0.5081538578   -1.9834580592   -1.5077554513
 C   -0.3763678939   -1.7498130579   -2.7427719345
 O   -0.8277083528   -0.6785709299   -3.0451650379
 C    1.7680185004   -2.7430259701   -1.9728421710
 C    3.0995489983   -2.0751491144   -1.7393500168
 O    1.6327363536   -3.8136632682   -2.5170229851
 H    1.2286226230    0.6908461462    1.3065993620
 H    0.7012788239    1.7098902230   -0.0469252550
 H   -0.3923753392    1.4159196909    1.3193664025
 H   -0.5283244230   -1.0083517437    0.7051041230
 H   -1.0430772776    0.0185481411   -0.6541733834
 H   -0.0454621766   -2.6954557070   -0.8674892323
 H   -0.5537458936   -2.6700983765   -3.3367998897
 H    3.2431038996   -1.8885192178   -0.6709381919
 H    3.8962722420   -2.7075413065   -2.1316297551
 H    3.1134711151   -1.0924358619   -2.2220783633