15

 N   -0.0712382600   -1.0216573358    0.1938908571
 C    0.1653975393    0.0726764247   -0.0861929401
 C    0.4337601166    1.4587392005   -0.4728749096
 O    1.2419628452    2.0616133820    0.5273426059
 C    1.3928080464    3.4280018639    0.3585299515
 C    2.6329939832    4.0193426437    0.9181720856
 C    2.4665964494    3.9571635573   -0.6000717913
 C    3.2484989715    3.0265012943   -1.3599970217
 N    3.8593603331    2.2738101051   -1.9919787900
 H    0.9372240380    1.4715709766   -1.4485120007
 H   -0.5257794686    1.9873185797   -0.5756790410
 H    0.4661452715    4.0015679235    0.3948794942
 H    2.5882540715    4.9965201176    1.3830372118
 H    3.3402942356    3.3237721810    1.3532144544
 H    2.2481830972    4.8865246460   -1.1152392962