21

 C    0.0644693688    1.3893806413   -0.0600008736
 O    0.0306315085   -0.0155877450   -0.0686035159
 C   -1.2760498715   -0.5354163144    0.0646675336
 C   -1.1882707340   -2.0568987651    0.0554574526
 C   -2.5461426540   -2.7800120230    0.0508778260
 C   -2.3440501082   -4.2879699160   -0.1510562832
 C   -3.3620818873   -2.5120954590    1.3246692867
 H    1.1085254107    1.6944887260   -0.1674870636
 H   -0.5176358143    1.8197032874   -0.8912846465
 H   -0.3309400783    1.8047449446    0.8813188544
 H   -1.7340047935   -0.1662473142    0.9973725773
 H   -1.9136245241   -0.1833284736   -0.7665190122
 H   -0.6176748867   -2.3476137779   -0.8347226267
 H   -0.5977268590   -2.3820500702    0.9220222105
 H   -3.1245199503   -2.4026861946   -0.8054982027
 H   -1.7680594959   -4.7192984340    0.6764733868
 H   -3.3034617607   -4.8139181407   -0.1964018081
 H   -1.8004875706   -4.4974152555   -1.0781991378
 H   -3.5949414800   -1.4507042913    1.4513955961
 H   -4.3120060690   -3.0565968684    1.3020116309
 H   -2.8129656805   -2.8414672763    2.2152087056