20

 C   -0.1087404151    1.5423894811    0.0524747613
 C    0.0660269360    0.0315673839    0.0337039452
 C    0.9740105091   -0.5477025359   -1.1087600005
 O    1.7390762338    0.3842200255   -1.8640009604
 C    1.9502553833   -1.3229814993   -0.2131684017
 O    2.9328134830   -2.0672788183   -0.8482155970
 C    0.9869906055   -1.9361345600    0.8206996337
 N    0.7487876728   -0.5020652076    1.2662763867
 C    2.2050899585   -0.2757075337    0.9129493305
 H    0.8459977982    2.0714868622    0.0190843902
 H   -0.6976079970    1.8704231932   -0.8113742651
 H   -0.6418855233    1.8405758237    0.9591816256
 H   -0.9235576755   -0.4363453114   -0.0042929426
 H    0.4287195555   -1.2213441544   -1.7831918748
 H    1.1768536884    0.7733803658   -2.5397851805
 H    3.2441584663   -1.5360588620   -1.5922735385
 H    0.0971035185   -2.4722372358    0.4759679135
 H    1.4944532394   -2.4995546169    1.6062134899
 H    2.8474689780   -0.6581500114    1.7083585550
 H    2.4825484648    0.7448594213    0.6481640797