19

 C   -0.0019657354    1.5723514770   -0.1739807054
 C   -0.0509936216    0.0768196930    0.0033285097
 O    1.2169545254   -0.6258181215   -0.0740313530
 C    0.5317825517   -0.6085228243    1.1507368239
 C    1.1653170606   -0.2039025089    2.4882688111
 C   -0.0643746418   -0.0268355752    3.4040786837
 C   -0.8136725434   -1.3441535548    2.9986523915
 C    0.2227017236   -1.8603514586    1.9791943332
 O    1.4862435558   -1.6202600438    2.6816516828
 H    0.8129907446    2.0079792701    0.4097702912
 H    0.1546148198    1.8300395094   -1.2264274842
 H   -0.9455014741    2.0279391878    0.1459076878
 H   -0.8533203350   -0.4320858819   -0.5345124910
 H    2.0181781855    0.4673779669    2.5763937473
 H    0.2248447781   -0.0147886776    4.4565006932
 H   -0.6330302655    0.8810355506    3.1853865349
 H   -0.9269150286   -2.0375072336    3.8340417418
 H   -1.7967003755   -1.1656802389    2.5545022793
 H    0.1254453058   -2.8566693456    1.5503947425