20

 C    0.0490460958    1.5329610384    0.0713117903
 C   -0.0124953613    0.0042488195    0.0068511689
 C    0.6574357270   -0.5702265293   -1.2365201353
 O    2.0396829342   -0.1961511122   -1.2319995361
 C    2.7605976662   -1.1155530071   -2.0454158177
 C    2.0367717487   -2.4428451656   -1.8991187339
 C    1.6562521344   -2.8263479464   -0.4924452507
 C    0.6706265646   -2.0879132960   -1.3645387756
 H    1.0865259110    1.8766473355    0.0746486179
 H   -0.4504181572    1.9855063639   -0.7929125306
 H   -0.4413427165    1.9096130071    0.9741290270
 H    0.4633904207   -0.4308317501    0.8930532937
 H   -1.0574296373   -0.3308196785    0.0123316487
 H    0.1643500261   -0.1519284354   -2.1336752491
 H    2.7594123409   -0.7991715066   -3.1017017593
 H    3.7966072320   -1.1211177072   -1.6895404020
 H    2.1797883504   -3.2067792111   -2.6541122249
 H    1.4572101041   -3.8741307747   -0.2975039525
 H    2.1238708943   -2.2928843213    0.3291822618
 H   -0.2272261680   -2.5876371031   -1.7087136908