19

 C    0.0454885592    1.5215472781    0.0978338458
 C   -0.0079575782    0.0216384288    0.0168076698
 C    0.8071331110   -0.7066954190   -1.0801201449
 C    0.5901977253   -2.1663113703   -0.5788001413
 C   -0.2829130971   -1.8164506208    0.6416590866
 O    0.4296216904   -0.6878090965    1.2271341107
 C   -1.3307304712   -0.8215473791    0.0664450294
 C   -2.3297753951   -0.3469413073    1.0803323546
 O   -3.5050678291   -0.2019012952    0.8467301972
 H    1.0816318899    1.8527434812    0.2218873192
 H   -0.3453280572    1.9634564237   -0.8241904335
 H   -0.5393851159    1.9020867589    0.9388064856
 H    0.4185918954   -0.5242295619   -2.0852652156
 H    1.8545021746   -0.3973980058   -1.0477264179
 H    0.0791836497   -2.8097284294   -1.2992975197
 H    1.5181715307   -2.6516791081   -0.2699565572
 H   -0.5432037990   -2.5967352416    1.3568230080
 H   -1.8280981036   -1.0630455293   -0.8759237460
 H   -1.9082160798   -0.1375187962    2.0857234792