15

 N   -0.0392908394    1.5143676265   -0.0942425723
 C    0.0548590953    0.2533225322   -0.1054577221
 C   -1.1577623229   -0.6295942091   -0.2319655796
 C   -2.4634055144    0.1345170361   -0.0723415357
 O   -3.4158963075   -0.0333946481   -0.7855135755
 O    1.1795731650   -0.5212643671   -0.0247679007
 C    2.4245140898    0.1558942841    0.0573809036
 C    3.4874152419   -0.8463914884    0.1210106297
 N    4.3523324627   -1.6084690912    0.1745022582
 H    0.8445697451    2.0118495880   -0.0119117930
 H   -1.1558077145   -1.1444948634   -1.1975331141
 H   -1.1089866092   -1.4076987795    0.5420783636
 H   -2.4838586503    0.8443788498    0.7785162250
 H    2.5832825677    0.7965431145   -0.8202963117
 H    2.4719954008    0.7873943855    0.9546188045