14

 O    0.0136994134   -0.0341288647    0.0042632305
 C    0.0119304613    1.1699238425    0.0095163170
 C   -1.2323940364    2.0934815526    0.0315830458
 C   -0.7381346109    3.5739081303    0.0313974646
 C    0.7539398573    3.4179583137    0.0095529889
 C    1.1424583676    2.1166510383   -0.0019686737
 O    2.4730910903    1.9942844425   -0.0211986239
 N    3.0071881769    3.2846570805   -0.0228469170
 C    1.9870031586    4.1181222318   -0.0046751630
 H   -1.8539608155    1.8604406302   -0.8377873532
 H   -1.8289883339    1.8523025518    0.9160979306
 H   -1.1077548106    4.1261405909   -0.8386800093
 H   -1.0828753831    4.1180338088    0.9166646178
 H    2.1933859349    5.1790289108   -0.0027144551