19

 C   -0.1676046818    1.4589667644   -0.0010874405
 N    0.0896002979    0.0288299726   -0.0064751869
 C    0.8303956711   -0.4914585446   -1.1773241266
 C    1.8751040812   -1.4183098038   -0.5128491236
 C    1.0735863309   -1.9483898702    0.6969069562
 C    0.7734954087   -0.5287286883    1.1876938806
 C    2.1838366721    0.1008121927    1.2110789416
 O    2.5988006504    1.0400707075    1.8508915417
 N    2.8481635222   -0.5739758880    0.1940338389
 H    0.7436473842    2.0810901159   -0.0107416602
 H   -0.7713034054    1.7191010468   -0.8763545355
 H   -0.7424396488    1.7218571842    0.8922426774
 H    0.1650608476   -1.0317206434   -1.8627355294
 H    1.3289373811    0.3071914423   -1.7441211274
 H    2.3511414389   -2.1498640812   -1.1649051883
 H    0.1709494330   -2.4946723090    0.4183895935
 H    1.6901946122   -2.5331001848    1.3809000185
 H    0.1937943734   -0.3859330995    2.0977432954
 H    3.5914485811   -0.0973021935   -0.2976371355