27

 C    0.3421696325    1.5128394174    0.0685452448
 C    0.0291199437    0.0029340790   -0.0287085797
 C    0.6440955201   -0.6831555294    1.2094697270
 C   -1.5046361799   -0.1612190445    0.0227220612
 C    0.6028058761   -0.6269711588   -1.3444626606
 C    0.3046204051   -2.1264518613   -1.4640364990
 C    0.2387742632    0.1552732971   -2.6578742486
 C    1.7086236775    0.6330038905   -2.7925311519
 C    2.1147317280   -0.3003999503   -1.6217836202
 H    1.4171470038    1.7136427220    0.0820786910
 H   -0.0984516626    2.0817900761   -0.7550016537
 H   -0.0732921001    1.9161481412    0.9981460287
 H    0.3045275483   -0.1869932874    2.1251277482
 H    0.3547412323   -1.7348889880    1.2840777894
 H    1.7380260811   -0.6348492033    1.1964927912
 H   -1.9869502467    0.2699679097   -0.8608144852
 H   -1.8047271819   -1.2103447891    0.0913957572
 H   -1.9111096717    0.3511910448    0.9014302847
 H   -0.7695438641   -2.3352923720   -1.4838586125
 H    0.7256807404   -2.5150154660   -2.3973055581
 H    0.7471106080   -2.7036894925   -0.6462130053
 H   -0.0747878963   -0.5147690017   -3.4632275298
 H   -0.5157808678    0.9401889762   -2.5714255633
 H    2.1910181618    0.4356408303   -3.7527605581
 H    1.8389872191    1.6932816664   -2.5622582861
 H    2.6760757168    0.1648815343   -0.8085644541
 H    2.6744660531   -1.1825674805   -1.9448156674