20

 C    0.1882415996    1.6462957137   -0.0417242210
 C    0.0756926182    0.1242201812   -0.0645384190
 C    1.1714572698   -0.6295684664   -0.9216171585
 C    1.6469892798   -1.3095651912    0.3651539818
 O    2.0335488005   -0.2702856624    1.2799999858
 C    0.6495218773   -0.6069886888    1.1787842897
 N   -1.2231369552   -0.4790917418   -0.3598506512
 C   -2.4598789415    0.1239809695    0.1209825015
 C   -2.1281127688    0.1178179180   -1.3332180865
 H    1.2022207067    1.9107207713    0.2664062425
 H    0.0124030230    2.0829199705   -1.0300835020
 H   -0.5068479219    2.1056315579    0.6684627790
 H    0.7017983925   -1.3141503911   -1.6293775403
 H    1.9188359434   -0.0097428764   -1.4229480872
 H    2.1099816582   -2.2799176213    0.5007320843
 H    0.1261750835   -0.8949524285    2.0838648124
 H   -3.1905849052   -0.5730152625    0.5227039685
 H   -2.4258817321    1.0847397757    0.6285521987
 H   -1.8705498578    1.0729846603   -1.7841522040
 H   -2.6126480800   -0.5834696377   -2.0074647046