20

 N   -0.0823766326   -1.1722829858   -0.1579037723
 C   -0.0722181786   -0.0193997799   -0.0784706832
 C   -0.0347559446    1.4378820827    0.0211571704
 C    1.3999381423    2.0015726995   -0.0474374467
 C    1.4374909376    3.5288127523    0.0404224647
 C    0.9235968167    4.1252010990    1.3828861431
 C    1.8095830576    5.3304839887    1.5907001975
 C    2.8555852459    5.3303042639    0.7670345136
 C    2.8615333841    4.1250016166   -0.1414948938
 H   -0.6439788929    1.8568803553   -0.7887623092
 H   -0.5173693560    1.7313685864    0.9601415739
 H    1.9941079176    1.5679340350    0.7657817406
 H    1.8635086715    1.6699684665   -0.9832901341
 H    0.8080258006    3.9355512471   -0.7617630212
 H   -0.1421002027    4.3794877476    1.3494101447
 H    1.0426666591    3.4111022042    2.2127076556
 H    1.6123453440    6.0732579264    2.3556738664
 H    3.6453155735    6.0733001915    0.7558858730
 H    3.6393391527    3.4106149916    0.1683173894
 H    3.0748051339    4.3714428415   -1.1878862125