20

 C   -0.0275807936    1.4986346548    0.1141440109
 C   -0.0708009703    0.0129083226    0.0050002042
 N   -1.0766872717   -0.7338935781    0.2262022532
 C   -0.6429692997   -2.1241201248    0.0163399764
 C   -0.9552201599   -2.9891735298    1.2241398092
 C   -1.0469397461   -2.6731967746   -1.3866212237
 C    0.4059647702   -2.4253605277   -1.9011194523
 C    0.8315916784   -1.9706410851   -0.4855188397
 O    1.1134862799   -0.5660144437   -0.3665733838
 H    0.7506004639    1.8020840302    0.8214804005
 H    0.2238814212    1.9431141239   -0.8541344614
 H   -0.9949314692    1.8718402908    0.4482151682
 H   -2.0365473096   -3.0342458254    1.3876014596
 H   -0.5854779767   -4.0101758300    1.0817691906
 H   -0.4945676093   -2.5769964940    2.1277492125
 H   -1.3387800368   -3.7267364111   -1.3755575407
 H   -1.8321759101   -2.0955485086   -1.8777325815
 H    0.9265150597   -3.3125142157   -2.2690248513
 H    0.5056450496   -1.6320836511   -2.6451768324
 H    1.6367086902   -2.5256267126   -0.0002883685