19

 C    0.0934869941    1.5011484784   -0.1329921788
 N    0.1109761170    0.0516601221   -0.0538399567
 C    0.6656452169   -0.5724162303    1.0376418837
 O    1.2833964529    0.0364033388    1.8995401442
 N    0.4945946415   -1.9510442857    1.0820228450
 C   -0.0873756796   -2.7053227145   -0.0166721192
 C    1.1506333735   -2.6784727694    2.1508921904
 C    0.1554718915   -3.3550935087    3.0783507412
 O    0.3128146492   -4.4406394336    3.5722247904
 H    0.9612841946    1.8784491361    0.4072946108
 H    0.1515898145    1.8150554429   -1.1789591608
 H   -0.8078396159    1.9378892848    0.3169898047
 H   -0.5559093452   -0.4471539530   -0.6162431884
 H    0.4288347889   -2.5134095410   -0.9662572450
 H   -0.0013433254   -3.7714043656    0.2004899632
 H   -1.1564653302   -2.4910927709   -0.1501569777
 H    1.8563716868   -3.4274446256    1.7726771752
 H    1.7069317686   -1.9369393341    2.7362816360
 H   -0.7567077936   -2.7441377206    3.2730514317