12

 O   -0.0975026540    0.1411123936    0.3595209451
 C    0.0134333718    1.2742274536    0.0306340452
 O   -0.9954737619    2.1466522867   -0.3471656881
 C   -0.0523758188    3.2210163441   -0.6364879261
 C    0.2286572250    4.1373327670    0.5688204974
 N    1.2182610508    3.1508884633    1.0973139397
 C    1.1135776590    2.3366526225   -0.1449856312
 H   -0.2046166627    3.6275326178   -1.6336523707
 H    0.6709408943    5.0917741383    0.2608598653
 H   -0.6179160336    4.3264182318    1.2348617017
 H    2.1422519321    3.5383957947    1.2398867840
 H    2.0256641578    2.0772382664   -0.6807192023