15

 C   -0.0262481617    1.4780323405   -0.1048347656
 C   -0.0674736631   -0.0262288584    0.0298566793
 O   -0.1280891967   -0.6108089032    1.0826211998
 C   -0.0287392343   -0.8112225915   -1.2514478719
 N   -0.0513837110   -2.0998924426   -1.4091045047
 C    0.0063191250   -2.2296818530   -2.7780994028
 C    0.0070443566   -3.5439575527   -3.4772665197
 N    0.0612045228   -1.0879195586   -3.4238024533
 O    0.0381697006   -0.1342643394   -2.4090779373
 H    0.8836325676    1.7893256504   -0.6286701727
 H   -0.8704545327    1.8303975903   -0.7067851691
 H   -0.0600015380    1.9255135419    0.8883139477
 H   -0.8997512130   -4.1029191933   -3.2288195617
 H    0.0581764051   -3.3999036876   -4.5571987423
 H    0.8617447128   -4.1434276228   -3.1508236456