16

 N   -0.0528716002    1.4116383445   -0.1137201771
 C    0.0106863444    0.0275572513   -0.0444935497
 C   -1.1855251747   -0.7117033881   -0.0448300807
 C   -1.1696421165   -2.0955793727   -0.0177323625
 C    0.0397659405   -2.7993506379    0.0154789193
 C    1.2227937315   -2.0856954884    0.0114014160
 C    1.2367185774   -0.6813425739   -0.0260741343
 C    2.5425636625   -0.0046690219   -0.0692199882
 O    3.6154349825   -0.5676594654   -0.0113800760
 H    0.7136621729    1.9330658105    0.2788040485
 H   -0.9481608175    1.8108723747    0.1232102595
 H   -2.1317497754   -0.1784302217   -0.0629325524
 H   -2.1115307045   -2.6351619502   -0.0157175031
 H    0.0459011881   -3.8827353806    0.0409408689
 H    2.1854855514   -2.5845395168    0.0304493056
 H    2.5146372476    1.1021826667   -0.1788945236