23

 C   -0.3737170006    1.3003491721   -0.1187248810
 C   -0.0291720422   -0.1907490073   -0.0275512801
 C    0.9320386878   -0.6216096511   -1.1673272664
 C    2.3034519653   -0.6228127264   -0.5227441502
 C    3.5309905936   -0.7306087024   -1.3739208070
 C    2.2071232399   -0.5654126314    0.8139604249
 C    3.3125421382   -0.5642119545    1.8251352728
 O    3.2701963002    0.5852579216    2.6741395408
 C    0.7627278480   -0.5114277077    1.2677667302
 H    0.5356777726    1.9118751372   -0.0839211397
 H   -0.8962078454    1.5320316627   -1.0530394339
 H   -1.0156625176    1.6100625171    0.7125788368
 H   -0.9600707689   -0.7647708130   -0.0668661610
 H    0.6917661744   -1.6245772481   -1.5500560794
 H    0.8787421358    0.0515941446   -2.0333533211
 H    3.5665848148    0.0806602110   -2.1123361817
 H    4.4565092969   -0.7016800016   -0.7939969508
 H    3.5268649569   -1.6669460478   -1.9474168262
 H    3.2059659204   -1.4174099465    2.5069877903
 H    4.2951335919   -0.6593505113    1.3417934614
 H    3.3046706969    1.3581847019    2.1007157466
 H    0.6059178777    0.2356483472    2.0536733511
 H    0.4638840534   -1.4778462865    1.6999717638