16

 O   -0.1947727820    1.4077238230   -0.0645127033
 N    0.0259267461    0.0299995432    0.0832249354
 C   -1.0586318344   -0.6124809826    0.0267828255
 C   -2.5301732907   -0.3588644956   -0.1765685316
 O   -2.7660109987   -1.7877958855   -0.1414539940
 C   -1.3657474792   -2.0899564539    0.0960559865
 C   -0.7392592879   -2.9801882744   -0.9838104499
 C   -1.2370119886   -4.3484962207   -0.9427301246
 C   -1.6532256129   -5.4740861002   -0.8869668109
 H    0.6964031115    1.7684119182   -0.0000928434
 H   -3.0346508058    0.1735364076    0.6394961212
 H   -2.8126094537    0.0972735842   -1.1332971041
 H   -1.2233125908   -2.5442807443    1.0850556837
 H   -0.9329171664   -2.5321209526   -1.9652721615
 H    0.3483656986   -2.9662528674   -0.8363824326
 H   -2.0217964451   -6.4689853188   -0.8473779164