19

 C   -0.7890507357    1.4365360625   -0.1211293234
 N   -0.5176681805    0.0004551589   -0.0863425618
 C   -1.3197955353   -0.9137297976    0.8216325158
 C   -0.2087582141   -1.9615802506    0.5473708237
 C    0.4898976928   -0.6115908357    0.8722392882
 C   -0.4754424109   -0.5046955187    2.0882502038
 N   -0.6240261385    0.7379304527    2.8032310663
 C   -1.0905403268    0.7808526992    4.0846201618
 O   -1.5163054682   -0.1698813611    4.7034360253
 H    0.1505549472    1.9749088955   -0.2915032804
 H   -1.4341043278    1.6387774288   -0.9835037824
 H   -1.2884326153    1.8661376735    0.7568317851
 H   -2.4003415898   -1.0278476330    0.7267247114
 H   -0.0898450471   -2.7748836587    1.2636538842
 H   -0.1271911324   -2.2723544530   -0.4918250755
 H    1.5540254426   -0.3692316131    0.8232614626
 H   -0.3992662423   -1.2929449566    2.8399760745
 H   -0.2363182508    1.5836378562    2.4218900004
 H   -1.0391198569    1.8049690008    4.5051302203