23

 C   -0.0270459138    1.5891719093   -0.1175164980
 C    0.0720835734    0.0653301879   -0.0127266915
 C    0.7476977413   -0.6013310958   -1.1986808688
 O    2.1855569630   -0.5895120332   -1.1472361637
 C    1.4835446870   -1.7778739167   -0.7407788301
 C    1.3168643509   -1.9249469021    0.7618735557
 C    2.5366970448   -2.5099904389    1.4778570973
 C    0.8358675019   -0.5081424992    1.2307963964
 C    1.9614294805    0.3978588592    1.7499481850
 H    0.9589218459    2.0479741770   -0.2291451362
 H   -0.6276826749    1.8741246925   -0.9881376201
 H   -0.5051866749    2.0210027987    0.7676758782
 H   -0.9513597799   -0.3383094268    0.0109021108
 H    0.3219209305   -0.5180734867   -2.1967946378
 H    1.6561945214   -2.6514313721   -1.3665084100
 H    0.4776949184   -2.6232226324    0.9001715617
 H    3.4299000241   -1.9028679275    1.3084924009
 H    2.3718418713   -2.5790548997    2.5580028626
 H    2.7464695460   -3.5208136862    1.1115573611
 H    0.1206845065   -0.6361722287    2.0511386590
 H    2.7211131563    0.5758941491    0.9865982067
 H    1.5628016717    1.3649808919    2.0706296249
 H    2.4479549686   -0.0503072896    2.6214450159