17

 C    0.0335863073    1.4344684060    0.1613587631
 N   -0.0744781120   -0.0056601562    0.1691729769
 C   -1.2661379299   -0.6415114598    0.0948901232
 N   -2.3767132538    0.0012899580    0.0130611980
 C   -1.0954228031   -2.1619396324    0.1219326318
 O    0.0049818590   -2.6513830215    0.2011499616
 C   -2.3746085711   -3.0016795937    0.0442104845
 C   -2.1418650732   -4.4343588638    0.0744578977
 C   -1.9643706604   -5.6210142200    0.0984733385
 H    1.0868204905    1.7124890626    0.2298140958
 H   -0.3914685342    1.8563283718   -0.7566042601
 H   -0.5107516283    1.8747449152    1.0046478283
 H    0.7402824261   -0.5936097756    0.2298213377
 H   -3.1724080272   -0.6281495409   -0.0342930798
 H   -3.0281221204   -2.6972071554    0.8731596701
 H   -2.9106010034   -2.7149767170   -0.8709058130
 H   -1.8004373658   -6.6699405173    0.1202261758