14

 N   -0.4948036596    1.0785565458   -0.2083991186
 C   -0.5472237573   -0.1701075144   -0.3624727737
 O   -0.7116936384   -0.9675270899    0.7214678195
 C   -0.8605294358   -2.3597319415    0.4796027416
 C   -2.2895807150   -2.7216070683    0.2119821845
 N   -2.9706995205   -3.5086159100    1.0002951262
 O   -4.2267370389   -3.5729458869    0.3878656237
 C   -4.1475888474   -2.8056257224   -0.6999814360
 N   -2.9917690795   -2.2528034042   -0.8800130903
 H   -0.3443765776    1.5336380570   -1.1063174930
 H   -0.4628272126   -0.7248747211   -1.3051098622
 H   -0.2384271057   -2.6762451398   -0.3674324679
 H   -0.5194802939   -2.8752736725    1.3782273519
 H   -5.0342347479   -2.7245907618   -1.3114972458