16

 N    0.2270395640    1.4787892119    0.2167473722
 C    0.0702404291    0.0503556832    0.0606767973
 C   -1.3446815006   -0.5742359971    0.2171619893
 C   -2.5489403681    0.3437440243    0.1740401294
 O   -3.7391387066   -0.3922748533   -0.0302890405
 O   -1.1770847963   -1.2504875386   -1.0835981784
 C    0.0213674617   -0.6029161887   -1.3191924064
 N    0.7454623109   -0.5595982457   -2.3410324196
 H    1.2099849070    1.7134854816    0.2975093343
 H   -0.1160386870    1.9712332535   -0.6016746141
 H    0.7911656075   -0.4563762113    0.7073162305
 H   -1.4597260890   -1.3237176622    1.0045507298
 H   -2.6476451700    0.8630897240    1.1318602936
 H   -2.4101266909    1.1093891315   -0.6053591909
 H   -3.6156457853   -0.8996719288   -0.8409888392
 H    0.3550831636   -1.1120878644   -3.1065075975