18

 C    0.0313437054    1.5873630360    0.0871352811
 C    0.0266876961    0.0917191917    0.0551679680
 C   -0.3519196877   -0.6926330161   -0.9542495193
 C   -0.1581641838   -2.1705157023   -0.6511157120
 C    0.0639107702   -2.1636871463    0.8942619015
 C    0.5332831038   -0.7296227744    1.2245422971
 C   -1.2555075714   -3.0284283556   -1.0859728522
 C   -2.1637755040   -3.7323810096   -1.4403093541
 H    1.0451040071    1.9760556708    0.2491750733
 H   -0.3510752364    2.0142746665   -0.8437530998
 H   -0.5812448070    1.9659219156    0.9152357911
 H   -0.7220243755   -0.3520596923   -1.9145182671
 H    0.7573232570   -2.5212041937   -1.1537096531
 H   -0.8944674676   -2.3614993312    1.3814848074
 H    0.7638545598   -2.9385913797    1.2148335001
 H    1.6290990231   -0.6605242000    1.2899601512
 H    0.1484124689   -0.3743831155    2.1879023224
 H   -2.9648736178   -4.3537134036   -1.7552600657