21

 C    0.8066786786   -0.4406205943    1.3356884971
 C   -0.0176201855   -0.0452960919    0.1068725095
 C    0.6920593660   -0.3556505394   -1.2217400392
 C    0.9289434260   -1.8745811178   -1.4726197458
 C    0.7062150020   -2.1069672756   -2.9889133955
 C   -0.0676750744   -0.8907734113   -3.4103890248
 C   -0.0729182417    0.0642276121   -2.4678177477
 C   -0.6664158279    1.3844317791   -2.6986298669
 O   -0.6039494373    2.3262797633   -1.9373621409
 H    1.0173337725   -1.5152794126    1.3590141494
 H    1.7680535396    0.0855288114    1.3502601644
 H    0.2775381197   -0.1883524193    2.2597152631
 H   -0.9826428340   -0.5701123371    0.1228668980
 H   -0.2416002903    1.0241338108    0.1384019838
 H    1.6534630243    0.1798887017   -1.2151662855
 H    1.9124653963   -2.2110509698   -1.1376629164
 H    0.1842572566   -2.4461658273   -0.9072713243
 H    1.6536407641   -2.1538811915   -3.5453602323
 H    0.1821716497   -3.0437491219   -3.2096765831
 H   -0.5238804998   -0.7856119664   -4.3904754564
 H   -1.1942731546    1.4776244278   -3.6752180965