18

 O   -0.2015677767    1.5271131649   -0.3434623913
 C   -0.0397623332    0.1412650668   -0.0872166560
 C   -1.4326718462   -0.4654982571    0.0427686116
 C   -1.3964974800   -1.9509154082    0.3339187925
 C   -2.7129982073   -2.7509219260    0.2184209946
 C   -1.9514457276   -3.5769108636   -0.8503541283
 O   -0.8021524700   -2.7199817613   -0.7574814242
 C   -1.6523792998   -4.9668176444   -0.4840893337
 N   -1.4308845356   -6.0623469049   -0.1903834453
 H    0.6677225252    1.9076664118   -0.4985886166
 H    0.5007132317   -0.3622990050   -0.9017313469
 H    0.5282090259   -0.0310799535    0.8421477379
 H   -1.9708822057    0.0422190760    0.8533410758
 H   -1.9894476675   -0.2824175383   -0.8833919589
 H   -0.8485664052   -2.1506266264    1.2644150514
 H   -3.0307028265   -3.2991021100    1.1041858583
 H   -3.5511967943   -2.1840212834   -0.1886858980
 H   -2.3847960070   -3.5678703874   -1.8568391029