17

 O    0.1772537657    1.3173623733    0.4752841503
 C    0.1731270600   -0.0517696403    0.3138178354
 C   -0.7432774571   -0.8985089371    1.1152451058
 C    0.7501908065   -1.1889592252    1.1555942266
 C    1.3219326751   -1.8467080153   -0.1347791013
 C    0.3258602698   -2.1775356917   -1.2096384948
 C   -1.0125870397   -2.8600161091   -1.0868201702
 O   -1.8674935770   -2.7944414260   -1.9333960227
 C    0.7199085018   -0.7284520090   -0.9753390086
 H    1.0748532278    1.6397290554    0.3334826500
 H   -1.0849083304   -0.3983201541    2.0173525190
 H   -1.4886538405   -1.5572622359    0.6827926907
 H    1.2975606543   -1.1642172814    2.0885046788
 H    2.3382749976   -2.2194678164   -0.1685604124
 H    0.8119889871   -2.5331032007   -2.1197648431
 H   -1.1414791706   -3.5007007880   -0.1866163572
 H    1.1874738497   -0.1508306285   -1.7640499463