16

 C   -0.0073088500    1.4714532767   -0.0221434212
 C   -0.0500821219   -0.0355861225   -0.1929817636
 O   -1.3231619142   -0.4974635242    0.2629602232
 C   -1.4766669674   -1.8770374141    0.1766463099
 C   -2.8749286331   -2.3887976450    0.5538901273
 O   -3.0331633442   -2.9776379833   -0.7787801938
 C   -1.8330201472   -2.4695517895   -1.2103333944
 O   -1.3664008242   -2.5193150908   -2.3021923485
 H    0.9593269703    1.8601556142   -0.3552196596
 H   -0.7943639790    1.9475081861   -0.6133257372
 H   -0.1500924798    1.7454516287    1.0269404107
 H    0.0940806123   -0.3197104777   -1.2435281401
 H    0.7455085341   -0.5210338703    0.3953666187
 H   -0.6480465429   -2.4188861443    0.6576571069
 H   -2.9356148375   -3.1542922468    1.3285267110
 H   -3.6023373654   -1.5925427774    0.7190701506