23

 C   -0.0144972673    1.4273111399   -0.0232326224
 O   -0.0068613876    0.0211810074   -0.0181901257
 C    0.6670661744   -0.5244692229    1.0961043081
 C    0.5869033972   -2.0462326604    1.0179815603
 C    1.3390997232   -2.7582508457    2.1714263446
 C    0.4909654034   -4.0073404608    2.5358068288
 C    0.4821397363   -4.3399196756    4.0318772304
 C   -0.8648040867   -3.6513127234    1.9623680863
 C   -0.8154639501   -2.5994350500    1.1483458273
 H    1.0057933836    1.8425469502   -0.0548142237
 H   -0.5534710275    1.7503064225   -0.9174945143
 H   -0.5214239579    1.8382186016    0.8646680625
 H    1.7216020199   -0.1963406985    1.1054864123
 H    0.2070188729   -0.1707156781    2.0356725785
 H    1.0052099520   -2.3342653117    0.0422259054
 H    2.3727992354   -3.0065131498    1.9159457501
 H    1.3740038502   -2.0909606102    3.0427477313
 H    0.8818635127   -4.8870003991    2.0006220591
 H    0.0850786433   -3.5014806228    4.6149660908
 H   -0.1390007778   -5.2176104799    4.2408668497
 H    1.4931859080   -4.5543425580    4.3946438898
 H   -1.7547571078   -4.2320219787    2.1848003415
 H   -1.6479894498   -2.1778009561    0.5975275391