15

 O    0.0079048767   -0.0174575829   -0.0501709890
 C   -0.0581631718    1.1710458418    0.0328358598
 C   -1.1849396953    2.2094501150    0.1515090297
 N   -0.1467602849    3.2064647551    0.5233436920
 C    0.9741575867    2.3104794825    0.1372773729
 C    2.1026302915    2.1565129691    1.1648110144
 C    2.9627119677    3.3308773138    1.2265192666
 C    3.6538630516    4.3139691471    1.2478772991
 H   -1.6895030736    2.3747871445   -0.8112616705
 H   -1.9441007816    2.0251987134    0.9191178472
 H   -0.1871352203    4.0748392483    0.0046198927
 H    1.4058307545    2.5257231555   -0.8518336706
 H    1.6569262286    1.9652727719    2.1476356455
 H    2.6899480856    1.2683849901    0.8989157846
 H    4.2749973545    5.1743330649    1.2836332757