21

 C    0.0479107650    1.4527027576   -0.0523365565
 N    0.0269046752    0.0121339041    0.0784862612
 C    0.5055675206   -0.6707384682   -0.8710766181
 N    0.5543919644   -2.0687642201   -0.8871393820
 C    0.0575520202   -2.7926860681    0.1838947019
 O    0.0607566543   -4.0028414788    0.2500040838
 C    1.1426195568   -2.7525346327   -2.0628267427
 C    2.4019092243   -3.5433797228   -1.6875969320
 C    0.1052624027   -3.6103437723   -2.7977096235
 H    0.6108186848    1.8909025010    0.7798968078
 H    0.4939348129    1.8051260873   -0.9969081410
 H   -0.9735920792    1.8444855740    0.0145713690
 H    0.9324829625   -0.2270876407   -1.7814001537
 H   -0.3406433346   -2.1333309679    0.9679222066
 H    1.4432369714   -1.9401762334   -2.7336638477
 H    3.1307391579   -2.9004197383   -1.1849363081
 H    2.1534301222   -4.3745900005   -1.0265609241
 H    2.8676072768   -3.9423400018   -2.5939751075
 H   -0.7706842555   -3.0141939834   -3.0708094037
 H    0.5451374667   -4.0101101622   -3.7165487281
 H   -0.2190761594   -4.4437423928   -2.1733010016