19

 C   -0.0286914000    1.5370881240    0.0835337035
 C   -0.0751971783    0.0131938709    0.0018312330
 N    0.5752650743   -0.4802710749   -1.1959987729
 C   -0.0924379936   -0.2575272943   -2.5021479158
 C    0.2401090275   -1.7045108568   -2.8664156017
 C   -0.2660239674   -2.5928546438   -3.9063768366
 O    1.0680351569   -2.0605912593   -3.9552139190
 C    0.6216409209   -1.9459816482   -1.4059743887
 H    1.0061029912    1.8907819851    0.0682574176
 H   -0.5544409270    1.9944415037   -0.7614932125
 H   -0.5072730207    1.8896082623    1.0022103449
 H    0.4454723714   -0.4191290093    0.8651155974
 H   -1.1288313244   -0.3307407928    0.0635722375
 H   -1.1770943694   -0.0748134454   -2.4225783750
 H    0.3595500197    0.5183702419   -3.1283927654
 H   -0.3344827809   -3.6642586780   -3.7202381612
 H   -0.9494691597   -2.2096247325   -4.6635324548
 H    1.5992460339   -2.4056798430   -1.2255942419
 H   -0.1504051144   -2.5014308194   -0.8486786384