19

 C   -0.0142204031    1.5511911993   -0.0353047357
 C    0.1525205286    0.0306659243    0.0129937947
 C    0.6013203013   -0.5470931399   -1.3279629304
 N    0.7521190808   -1.9972568942   -1.2365059040
 C    1.3168516466   -2.7204212830   -2.2464217562
 C    1.3302362233   -4.0628543423   -2.5375540015
 C    2.1596992301   -4.1268859664   -3.6807346855
 N    2.6117385287   -2.9598768880   -4.0681629075
 O    2.0585364259   -2.0457457910   -3.1353027671
 H    0.9289474349    2.0442944035   -0.2933822507
 H   -0.7586914424    1.8469405346   -0.7822234578
 H   -0.3402339993    1.9413590712    0.9328919504
 H    0.8831677768   -0.2480577740    0.7810153153
 H   -0.7999623593   -0.4330593941    0.3060194238
 H   -0.1120502500   -0.2645991361   -2.1183743034
 H    1.5698444355   -0.1277429958   -1.6144278103
 H    0.0095105408   -2.4781807268   -0.7517446667
 H    0.8351199727   -4.8629222321   -2.0150135550
 H    2.4483464480   -5.0026588392   -4.2466201923