21

 C   -0.1658016655    1.5471549853    0.0184677637
 C   -0.0067243441    0.0203965795    0.0555369083
 C    0.7409703311   -0.4111184047    1.3264080657
 O   -1.2931804801   -0.5974161603    0.0189408719
 C    0.7097094033   -0.4888949151   -1.2530847773
 C    0.6521250592   -2.0188019080   -1.3811127283
 O    0.0295049623    0.0052853073   -2.4114455236
 C    2.1074118843   -0.0274496101   -1.2772873673
 C    3.2407276245    0.3697795062   -1.3462627463
 H    0.8024881788    2.0503154190   -0.0615404410
 H   -0.7978818170    1.8393112223   -0.8228971759
 H   -0.6460260227    1.8963690104    0.9393895044
 H    0.2065704604   -0.0401573786    2.2086495278
 H    0.7912867181   -1.4995672932    1.4016217499
 H    1.7563346323   -0.0085093096    1.3557211112
 H   -1.7933963514   -0.2734491148    0.7746360753
 H   -0.3909333949   -2.3352305770   -1.3787413072
 H    1.1193698718   -2.3102984201   -2.3235788399
 H    1.1806504817   -2.5096405665   -0.5621003790
 H    0.3233940750    0.9083376678   -2.5668517413
 H    4.2447044330    0.7121844201   -1.4034098111