16

 O    0.0149151883    1.4847107176   -0.1328747710
 C    0.0027043269    0.1423080555    0.3030293949
 C   -1.3445936169   -0.5070638337    0.0525992994
 O   -1.6086247053   -0.5788848688   -1.3962974858
 C   -1.7419915114   -1.9575390085   -1.3722421260
 O   -1.9749209960   -2.6831892953   -2.2801998278
 C   -1.4626031436   -2.0295773773    0.1116763437
 C   -0.6906989700   -3.0326831397    0.8864517269
 N   -2.1430722707   -2.9037056206    1.0536120805
 H   -0.1947742854    1.4769746999   -1.0742651526
 H    0.7878177039   -0.4579769596   -0.1822139451
 H    0.2093165975    0.1582585033    1.3793041220
 H   -2.1520897773    0.0476900343    0.5401161028
 H   -0.3668626068   -3.9454288908    0.3957386534
 H   -0.0300295416   -2.6632880313    1.6668542163
 H   -2.3689275617   -2.3932421151    1.9046057083