19

 C    0.1240368999    1.4815860722    0.1148864524
 C    0.0813731192   -0.0026210990   -0.0461679416
 C    0.0382492246   -0.8091127282   -1.1698333690
 C    0.0372257711   -0.4000568135   -2.6115966331
 C   -0.0076772309   -2.1339034208   -0.6556450372
 C   -0.0360321227   -3.4183562152   -1.4258878749
 O    1.0972763614   -3.5744141160   -2.2816908625
 N    0.0138195263   -2.1494364998    0.6759239672
 N    0.0597283765   -0.8492928158    1.0205712509
 H    0.7912326654    1.7799751829    0.9309271591
 H    0.4886038049    1.9530703730   -0.8009377887
 H   -0.8665059622    1.9017547885    0.3274755231
 H    0.4984762206    0.5824500606   -2.7543987441
 H    0.5916509754   -1.1276625356   -3.2099004020
 H   -0.9780869962   -0.3418968744   -3.0241324355
 H   -0.1279285254   -4.2514304855   -0.7157974671
 H   -0.9012842739   -3.4542511658   -2.0967231153
 H    1.8802281533   -3.4889187347   -1.7274276152
 H    0.0925526927   -0.6037018729    1.9957120835