20

 C   -0.0309391815    1.4787635342    0.1020574821
 C    0.0085543566   -0.0079783300    0.0097734696
 C   -0.0036008030   -0.8445804597   -1.0387348959
 C   -0.0608656449   -0.6039276685   -2.5081852639
 C    0.0590724848   -2.2353517258   -0.3737704819
 C   -0.9738128537   -2.0441753255    0.7876971543
 C    0.0774447526   -0.9658654653    1.2172727048
 C    1.1566094495   -1.9832168918    0.7144716259
 H    0.8544129987    1.8741489536    0.6177358830
 H   -0.0769018446    1.9461856688   -0.8859455003
 H   -0.9015454808    1.8239532891    0.6756610735
 H   -0.1009422541    0.4635811270   -2.7439076829
 H    0.8141023815   -1.0263785574   -3.0201419170
 H   -0.9417182270   -1.0791002412   -2.9603046242
 H    0.0621620933   -3.1162593017   -1.0172826388
 H   -1.9743429818   -1.6947457251    0.5204421116
 H   -1.0274541666   -2.8990146882    1.4703827824
 H    0.0995158980   -0.5341344303    2.2188896946
 H    1.3056956830   -2.8322499296    1.3901960941
 H    2.1148526800   -1.5777454727    0.3798828391