17

 C   -0.1023569607    1.0115543763   -1.1287828764
 C   -0.0320993086   -0.2601213991   -0.4315737983
 C    0.0166727933   -1.3198006771    0.1438583179
 C    0.0908357499   -2.5737299549    0.8566464746
 O   -0.7326674478   -2.9072926121    1.6785024781
 C    1.3177782814   -3.4590778824    0.5271973200
 C    1.3573897947   -4.7104504310    1.4174550904
 C    1.3284905653   -3.7860192504   -0.8962838088
 C    1.3150530773   -4.0820364822   -2.0611078150
 H    0.8641669252    1.5261478158   -1.1048271984
 H   -0.3695267586    0.8578319588   -2.1801081042
 H   -0.8529614618    1.6712370919   -0.6817286196
 H    2.1978009856   -2.8327134733    0.7371928492
 H    0.4756865909   -5.3302751545    1.2442540718
 H    2.2510051874   -5.2981759393    1.1956196474
 H    1.3673156498   -4.4235431959    2.4711738883
 H    1.3105317366   -4.3374493305   -3.0917654372