17

 O    0.0201331764    0.0134253912   -0.4480313784
 C    0.0384357586    1.1549913577   -0.0877295949
 O   -1.1000124023    1.8401321359    0.2286881007
 C   -0.8030492909    3.1891593126    0.6613417610
 C   -0.8217844802    3.2063823157    2.1930910544
 C    0.5049512042    2.5023488337    2.5785180211
 C    1.4333416293    2.7831131369    1.3923697479
 C    0.6681472174    3.4536486533    0.2874659277
 C    1.2124654758    2.0729222573    0.0534264019
 H   -1.5269656136    3.8502385741    0.1837721994
 H   -0.8093056537    4.2472690192    2.5355639477
 H   -1.7138688046    2.7223415550    2.5973308877
 H    0.9249002354    2.9069806738    3.5026667811
 H    0.3576757374    1.4296299994    2.7376155668
 H    2.4630825536    3.0593930790    1.5867707220
 H    0.9803621643    4.3349471737   -0.2565983402
 H    2.0744499729    1.8643156016   -0.5660399458