17

 C   -0.5005264640    1.5030918429    0.3944477794
 C   -0.1257159308    0.0772597951    0.1453245859
 C    0.2604816927   -0.5182257171   -1.0353395373
 C    0.4168009925    0.0330502501   -2.4160300904
 C    1.1592715431   -0.8055971369   -3.4300346151
 O    1.5250400522   -1.9475950856   -3.2839896218
 N    0.4698153381   -1.8471630746   -0.7211747535
 C    0.2212094508   -1.9895182762    0.6056750492
 N   -0.1453290556   -0.8554744895    1.1595633004
 H    0.0161694193    1.8876059197    1.2792183991
 H   -0.2451883882    2.1431988228   -0.4556315959
 H   -1.5760061280    1.6098316719    0.5791293163
 H   -0.5581087996    0.2394500598   -2.8932951028
 H    0.9090804101    1.0155702718   -2.3934491245
 H    1.3350840805   -0.2804727554   -4.3938995649
 H    0.8385720398   -2.5184694956   -1.3775976350
 H    0.3263894370   -2.9367753533    1.1133487311