9

 O    0.0616330988    1.3411812343    0.0077111510
 C   -0.0583487457    0.0148477764    0.0012734952
 C   -1.1138763146   -0.7952112873    0.0032460297
 O   -0.6316814269   -2.1107972781   -0.0059286360
 C    0.7184708138   -2.0641154200   -0.0136792348
 O    1.4715511085   -2.9815345779   -0.0224941038
 O    1.0969194248   -0.7287306947   -0.0090468438
 H    1.0001121993    1.5661679124    0.0001571853
 H   -2.1755980180   -0.6452609650    0.0101159773