15

 C   -0.0818638555    1.4638292927    0.0110044740
 C   -0.0090826860    0.0115711330    0.0028958765
 C    0.0632331735   -1.1942341408   -0.0038169034
 C    0.1338845553   -2.6014237007   -0.0117825059
 C    1.2187003547   -3.4667090103   -0.0227094768
 C    0.7167779515   -4.7906805277   -0.0268886158
 C   -0.6599336682   -4.7107973198   -0.0184516151
 N   -1.0027791312   -3.3887141047   -0.0093349868
 H    0.9214408397    1.9041297935    0.0037034933
 H   -0.6153299291    1.8468851594   -0.8668105303
 H   -0.5985538883    1.8379136325    0.9026194274
 H    2.2526164331   -3.1596153071   -0.0270765903
 H    1.2958910060   -5.7010316367   -0.0351263294
 H   -1.4148067036   -5.4806376443   -0.0181909575
 H   -1.9382632318   -3.0212179889   -0.0018842398