20

 C   -0.0547500086    1.5336638060   -0.2502850811
 C    1.4583899708    1.6327597022    0.1163475173
 C    1.4767088579    0.1182710619    0.4754446002
 C    1.4003466361   -0.3148850179    1.9517309870
 C    0.4462573013   -1.5480682574    1.8341109354
 C   -0.6003180825   -0.4459125609    1.4669649675
 C    0.1553967447    0.4413603574    2.4967912135
 C   -0.0479888639    0.0184168904    0.1060081303
 H   -0.7296998278    2.1516224135    0.3489809180
 H   -0.2647992670    1.7340389263   -1.3037746317
 H    2.0991166525    1.8888503752   -0.7310002513
 H    1.7040027780    2.3110086609    0.9386628792
 H    2.1817466308   -0.4892109521   -0.0966774865
 H    2.3325157994   -0.3576786687    2.5172771127
 H    0.6787129819   -2.3069281971    1.0798593979
 H    0.2438193794   -2.0218217218    2.7976383554
 H   -1.6745454256   -0.6201108208    1.5463590952
 H   -0.0749036963    0.1533071712    3.5251104495
 H    0.1058737550    1.5291663802    2.4071539411
 H   -0.3337829662   -0.6539538286   -0.7061960997