22

 C   -0.0222679159    1.5642903899   -0.0080470134
 C    0.0474127585    0.0310078555   -0.0077085838
 C    0.7072169493   -0.4984822328   -1.2828582449
 O   -0.0838737630   -0.0982336674   -2.3921469160
 C    0.7560054997   -0.5000084226    1.2232725211
 C    2.2212389308   -0.2977941251    1.7009274540
 N    1.6481524380   -1.1815299101    2.8203489385
 C    0.4138487832   -0.2686141485    2.7162780770
 C    0.9883028554   -1.9660548484    1.6750465575
 H    0.9831372652    2.0012874938    0.0156457299
 H   -0.5236411770    1.9205807936   -0.9100645664
 H   -0.5693786908    1.9364608729    0.8634709569
 H   -0.9787249035   -0.3635340892    0.0031696928
 H    1.7316747653   -0.0975445640   -1.3600398854
 H    0.7863156438   -1.5958839071   -1.2319189071
 H    0.3576270450   -0.3835886899   -3.1970255174
 H    3.0235889412   -0.7815407965    1.1357700056
 H    2.5234508756    0.6955425661    2.0448313788
 H    0.5744431258    0.7277612511    3.1378149724
 H   -0.4993362108   -0.7239438038    3.1113181788
 H    0.1192392922   -2.5511339150    1.9908880390
 H    1.6943671520   -2.5806295526    1.1087226721