20

 C    0.0112771682    1.5684611064    0.0186009344
 C    0.0188919496    0.0394897441    0.0271374701
 C   -1.3922781586   -0.5641760545   -0.0163828318
 N   -2.0898154814   -0.2684647978   -1.2834183418
 C   -2.4136761879   -1.3989816375   -1.7739123358
 N   -2.0596792306   -2.5242707159   -1.0360088146
 C   -2.2872831938   -3.9041971593   -1.3875197969
 C   -1.3879885350   -2.0876908915    0.1076855729
 N   -0.8690419584   -2.7628573661    1.0519645443
 H    1.0316282813    1.9637676487    0.0253003766
 H   -0.5006545446    1.9490539406   -0.8690614605
 H   -0.5058588335    1.9648946110    0.8996851518
 H    0.5851307217   -0.3403944955   -0.8319321539
 H    0.5101276230   -0.3478490143    0.9260804126
 H   -1.9788948723   -0.1387834845    0.8086932195
 H   -2.9410720637   -1.5356601182   -2.7141282609
 H   -2.8321388733   -3.9502509137   -2.3325962232
 H   -1.3407455496   -4.4456281630   -1.5062316572
 H   -2.8823270717   -4.4142836187   -0.6206355363
 H   -0.9838321895   -3.7683982805    0.9172024909