18

 C   -0.0271645784    1.5167984283    0.0304425795
 N   -0.0119388885    0.0709990403    0.1235599316
 C   -1.2666780504   -0.6310241250    0.4556123133
 C   -0.4447840478   -1.6372176544    1.2963769992
 C    0.6792242950   -0.5732160312    1.2532158804
 C    2.1083401813   -1.0573524037    0.9677643888
 C    3.0639329879    0.0409429424    0.8387349867
 N    3.8022684618    0.9253841415    0.7447342754
 H    0.9891121629    1.8924875416   -0.1165758996
 H   -0.6288709070    1.8213892471   -0.8321785423
 H   -0.4492950073    2.0007296103    0.9312212122
 H   -1.9453636308   -0.0290956417    1.0820238199
 H   -1.8260511773   -1.0089912844   -0.4062101044
 H   -0.8325752517   -1.9084700553    2.2781022178
 H   -0.1864144986   -2.5427786724    0.7423928687
 H    0.6806201274    0.0486549525    2.1640703256
 H    2.4424996265   -1.7173927570    1.7772324544
 H    2.1092133050   -1.6388127889    0.0399434230