19

 C   -0.1801086112    1.4818498508    0.0686528480
 C    0.1349042950   -0.0143566878   -0.0055479049
 C    0.6704881208   -0.5562411902    1.3115241159
 O    0.9416873517   -1.9412487037    1.1423146081
 C    1.4855170384   -2.5613592242    2.2963783367
 C    0.5124975498   -2.6553530848    3.4004990298
 C   -0.2825797819   -2.7060130396    4.2993627287
 C    1.9826524353   -3.8869265821    1.9183119736
 C    2.4141604199   -4.9677734794    1.6264707576
 H    0.7132749286    2.0672293364    0.3128263720
 H   -0.5651423411    1.8483167741   -0.8871124483
 H   -0.9347103709    1.6940216349    0.8340105300
 H   -0.7644540583   -0.5801175078   -0.2733963319
 H    0.8736076485   -0.2104103303   -0.7908558488
 H    1.5945368919   -0.0267565974    1.6017616287
 H   -0.0611699665   -0.4059530325    2.1193267983
 H    2.3432182611   -1.9648966921    2.6577357175
 H   -0.9853467884   -2.7635406108    5.0938745493
 H    2.7874064671   -5.9267195334    1.3634184597