20

 C    0.3561856406    1.4212739523    0.2306559012
 C    0.1304079681   -0.0738252123   -0.0403157266
 C    0.6366713745   -0.5178799516   -1.3814522833
 C    0.0504574031   -0.1536293054   -2.7615883461
 C    0.4602209503   -1.5760228531   -3.2835325948
 C    1.0471689130   -1.8805425125   -1.8999477976
 N    2.0429068336   -0.8594985465   -1.6276475317
 C    3.0314946756   -0.9968565368   -0.6767760713
 O    3.6422903429   -2.0153284102   -0.4458222533
 H    1.4221596010    1.6692923773    0.2415040246
 H   -0.1203899254    2.0380671141   -0.5381320267
 H   -0.0655882024    1.7074673208    1.1983269356
 H    0.6064583011   -0.6756476943    0.7432996310
 H   -0.9437416498   -0.2924130633    0.0082805445
 H   -1.0333666279   -0.0187268663   -2.7300903510
 H    0.5094333110    0.7050013284   -3.2559125676
 H   -0.4070787556   -2.1954688399   -3.5202428401
 H    1.1715800109   -1.6136846098   -4.1111600407
 H    1.1148986829   -2.8281331946   -1.3793336569
 H    3.2735332025   -0.0299318062   -0.1949670991