18

 C   -0.0486664295    1.6151257829   -0.0549153769
 C    1.4566075367    2.0283530582    0.0009331486
 C    2.1416727377    0.7653626204    0.5477345654
 C    1.5174340292    0.4167747752    1.9345770062
 C    0.4481170755   -0.5549962368    1.3980868077
 O    1.2840839208   -1.4986575149    0.6597280207
 C    1.4527208872   -0.3905589000   -0.2556197850
 C    0.0122975930    0.0882488674    0.0397625196
 H   -0.6270105129    2.0527261137    0.7654968226
 H   -0.5244940820    1.9404597441   -0.9842806203
 H    1.8249716336    2.2639368549   -1.0045259926
 H    1.6374673384    2.9079508981    0.6255689625
 H    3.2312087691    0.7832162605    0.5222325627
 H    2.2041751423   -0.1121591269    2.5982597883
 H    1.1176392577    1.2903538221    2.4577355078
 H   -0.2480422994   -1.0255415673    2.0931235288
 H    1.8384556610   -0.6634268635   -1.2378995475
 H   -0.7749618883   -0.4789386581   -0.4552756386