18

 C    0.0353633053    1.5999648748    0.1570986408
 C   -0.0392841910    0.0770118243   -0.0138390993
 C    0.7981716250   -0.6372036987    1.0667762530
 C   -1.4634769222   -0.3981201872   -0.0158096774
 C   -2.6623001592    0.2123850952    0.2603671641
 N   -3.7162015967   -0.6661927862    0.1279166287
 C   -3.1697904938   -1.8033631863   -0.2269394981
 N   -1.8124221961   -1.7001904838   -0.3279019618
 H    1.0746778603    1.9384127097    0.1124948614
 H   -0.5275384771    2.1164531022   -0.6252714220
 H   -0.3740253129    1.9040645606    1.1262713711
 H    0.4040390266   -0.1701627912   -0.9906003260
 H    0.4128284025   -0.4068611148    2.0653263988
 H    0.7767485414   -1.7252909151    0.9464936846
 H    1.8442021471   -0.3170527997    1.0196002181
 H   -2.8281780024    1.2396560319    0.5458568250
 H   -3.6929944544   -2.7271673583   -0.4254014774
 H   -1.1770285523   -2.4342847674   -0.5926454435