19

 O    0.7136847713   -0.3179711056    1.2860755876
 C    0.0840352559    0.0223392263    0.0670282105
 C   -1.3181601194   -0.5758394996   -0.0116249579
 O   -2.0234460432   -0.0559077446    1.1378409055
 C   -2.0995700199   -0.6776691933   -1.3623974484
 C   -1.1553289468   -1.8646498620   -1.7158532618
 C   -1.5356464244   -2.1030813099   -0.2253030868
 C   -3.0054471881   -1.7806542258   -0.6890588372
 O   -4.0328964079   -1.4873302627    0.1940555643
 H    0.0444992575   -0.1994314227    1.9712607189
 H   -0.0038501436    1.1199507108   -0.0474650438
 H    0.7374673985   -0.3258428710   -0.7335362754
 H   -2.1133431291    0.8977795520    1.0195574701
 H   -2.4070380710    0.1427418493   -2.0136640213
 H   -1.5592510022   -2.5902560620   -2.4242871128
 H   -0.1164882344   -1.6391899054   -1.9437154941
 H   -1.1935443248   -2.9063056151    0.4269706602
 H   -3.4061123768   -2.5029579927   -1.4050182215
 H   -3.6575753416   -0.9067012159    0.8704035739