21

 C    0.0561891874    1.5649904075   -0.1138343452
 C   -0.0407879674    0.0349376399    0.0389050260
 C    0.6806707724   -0.4837220416    1.2572739672
 C    0.0176042731   -0.8633478325    2.3641198177
 C    0.6733368591   -1.4069506241    3.5681026697
 O    0.0394236487   -1.7101962683    4.5609170259
 C    2.1827031734   -1.6084642809    3.4814715824
 C    2.8500032618   -0.5782720942    2.5647176832
 C    2.1878364735   -0.5657041780    1.1823118676
 H    1.0949507289    1.9012992467   -0.1880809063
 H   -0.4641041006    1.8923132187   -1.0187453198
 H   -0.3994805038    2.0694332251    0.7433039799
 H   -1.0949366826   -0.2561864935    0.0866748104
 H    0.3821367796   -0.4397494567   -0.8568087960
 H   -1.0664281457   -0.8024142083    2.4167317082
 H    2.5895782214   -1.5935345473    4.4956906459
 H    2.3501666429   -2.6212109641    3.0857668079
 H    2.7556166776    0.4187040334    3.0127042184
 H    3.9214357938   -0.7830384954    2.4709206614
 H    2.4533632300   -1.4798845253    0.6280656617
 H    2.5765057463    0.2622436289    0.5783182637