17

 C   -0.8670040053    0.8352840842   -0.8341700013
 N    0.1394178912    0.2631196000    0.0562151054
 C   -0.3988238907   -0.6861894051    1.0090661989
 C   -0.8720927058   -2.0183539005    0.4497180985
 N   -0.3182323855   -2.4515030580   -0.6889519796
 C   -0.7500813568   -3.6399095731   -1.1063538992
 N   -1.6556552532   -4.4045731219   -0.4970354991
 C   -2.1327878744   -3.8728132311    0.6304961882
 N   -1.7890368655   -2.6978948184    1.1510929308
 H   -0.3798298404    1.5222004769   -1.5319645111
 H   -1.4328426391    0.0954245826   -1.4242432850
 H   -1.5844675234    1.4155961722   -0.2430782973
 H    0.8483810340   -0.2036156509   -0.5000694018
 H    0.3696341136   -0.9174702772    1.7612354948
 H   -1.2315938231   -0.2358006413    1.5587478646
 H   -0.3229837591   -4.0226288958   -2.0312985896
 H   -2.8756240764   -4.4544978825    1.1728092628