15

 C    0.0268491434    1.4195505059    0.0921510622
 O    0.0175186699   -0.0070484585    0.0181960315
 C    0.6087973916   -0.6806517056    1.0032161979
 C    0.7501915688   -2.0167591731    1.1998355216
 C    1.4800447015   -2.1429785568    2.4372830766
 C    1.8992310118   -3.3749190530    3.1102480265
 O    2.5133420401   -3.4141664660    4.1536030955
 C    1.7175689759   -0.8748457361    2.8826854943
 O    1.1882394251    0.0294645990    2.0122348370
 H    1.0499028930    1.8083716506    0.0896988695
 H   -0.5021326304    1.7610071255   -0.7974195333
 H   -0.4891390904    1.7716860707    0.9908313278
 H    0.3881075740   -2.8024378868    0.5582654324
 H    1.6069997376   -4.3097107086    2.5826089407
 H    2.2179257782   -0.4756418371    3.7472426896