16

 C   -0.0660317045    1.5810574989    0.0198168357
 C    0.0424715503    0.0773156155    0.1123124324
 N    1.2060949261   -0.7247493536   -0.3009274518
 C    2.4525358332    0.0309924672    0.0923704981
 C    2.0754573395    0.0332136557    1.5925511674
 C    0.7755794714   -0.6652251529    1.1765245904
 C    0.2026978523   -1.7780314701    1.8725366245
 N   -0.2607631409   -2.6564258497    2.4667302911
 H    0.7795979525    2.1084942067    0.4643893484
 H   -0.1460665960    1.8882540486   -1.0282344056
 H   -0.9728111992    1.9124775048    0.5347955329
 H   -0.8634988514   -0.4352948228   -0.2052876350
 H    3.3247076869   -0.5821337418   -0.1364068789
 H    2.5584545810    0.9981270450   -0.4054764124
 H    2.7184962201   -0.6130557537    2.1900560409
 H    1.9630778587    0.9922561921    2.1044553119