15

 O    0.1216491294    1.3157392501   -0.3086004651
 C   -0.0024332957   -0.0459190603    0.0268990502
 C   -1.4723317328   -0.5059784684    0.0759564194
 C   -2.1386983859   -0.5580305763   -1.3268843430
 O   -1.9861093679   -1.9897351353   -1.3761687002
 C   -1.6376830962   -2.0502527838    0.0165747250
 C   -2.1883804753    0.2114747497    1.1191541248
 N   -2.7233177081    0.8109866779    1.9511570636
 H   -0.2136488548    1.8420124326    0.4264264874
 H    0.5005333639   -0.6105033410   -0.7644736470
 H    0.4870407197   -0.2880083328    0.9817898631
 H   -3.1915422568   -0.2534079581   -1.3373369468
 H   -1.5917343334   -0.0422328131   -2.1213607390
 H   -0.7262068441   -2.6310164837    0.1976946227
 H   -2.4530155419   -2.4397016577    0.6375530747