18

 C    0.1196456026    1.4581312342   -0.2455608647
 C    0.0292655406   -0.0448395329    0.0175114879
 C    0.5769395943   -0.4321625145    1.3848668579
 O   -1.3294619383   -0.5214831909   -0.0013264199
 C   -1.9254939592   -0.6425200924   -1.2718384917
 C   -2.8241973089   -1.7989416960   -1.2877536895
 C   -3.5516154977   -2.7521019866   -1.3192323052
 C   -2.6778262705    0.5835426749   -1.6511033811
 N   -3.2478323702    1.5429959374   -1.9486828699
 H    1.1631590072    1.7834962537   -0.1877510787
 H   -0.2595512852    1.7276525297   -1.2347092420
 H   -0.4587714726    2.0097435301    0.5016453437
 H    0.5884565205   -0.5856047379   -0.7635788903
 H    0.0179325654    0.0772004292    2.1756212631
 H    0.4918974816   -1.5101324425    1.5418598570
 H    1.6294314281   -0.1460880334    1.4664281311
 H   -1.1528652073   -0.7899464382   -2.0448686379
 H   -4.1990154806   -3.5943909637   -1.3404190797