13

 O    0.1142583569    1.3331897402    0.0413914432
 C    0.0761990311   -0.0017427366    0.0265403139
 N    0.0865443750   -0.6129585722   -1.1511662036
 C    0.0477933599   -1.9466994952   -1.1349164860
 N   -0.0002356135   -2.7310495170   -0.0614627984
 C   -0.0098835925   -2.0974240586    1.1141119410
 C    0.0269326630   -0.7073145307    1.2481797406
 C    0.0156492228   -0.0601883466    2.5092807713
 C    0.0051661254    0.4675223037    3.5911754566
 H    0.1443520216    1.6159784231   -0.8846912114
 H    0.0565889323   -2.4391202638   -2.1039539303
 H   -0.0488314297   -2.7146258371    2.0076926600
 H   -0.0036897323    0.9435188908    4.5405696729