17

 C   -0.2877808155    1.5001570934    0.0459841597
 C    0.0940384597    0.0322847698   -0.0632585550
 N    0.9904543034   -0.3408296704   -1.1837399780
 C    2.0071980067   -0.9999553455   -0.3384992917
 C    1.1892357419   -0.5077126618    0.8759858819
 O    1.3595656356   -0.5124361061    2.0558452443
 C    0.4803083391   -0.8012200912   -2.3829882121
 N    1.3894354908   -1.5014429473   -3.1575081452
 O   -0.6772367371   -0.6165357605   -2.7103772816
 H    0.5980540158    2.1410103841    0.0172921091
 H   -0.9447249910    1.7701063908   -0.7843812541
 H   -0.8175912327    1.6775263899    0.9865567703
 H   -0.8062873219   -0.5974733777   -0.0456576939
 H    2.0451819198   -2.0922426541   -0.4377925171
 H    3.0217945699   -0.5926518617   -0.4158580938
 H    2.3687247915   -1.2821945210   -3.0587760171
 H    1.0802867139   -1.6362063805   -4.1080464257