21

 O   -0.0543558004    0.9261758437    0.6323255196
 C    0.0229199611   -0.3668225634    0.1110855108
 C   -1.2096533309   -1.1995846995   -0.1310600383
 C   -2.6217573236   -0.8297046502    0.2905865909
 C   -3.0914687567    0.6175367771    0.1085068449
 C   -3.2304252786    1.0764254462   -1.3509670974
 C   -1.9649903544    1.2523927336   -2.1537544658
 C   -0.8484479345    0.5135568273   -2.1600368004
 C   -0.4460426833   -0.6370782226   -1.3212588186
 H   -0.2305857110    1.5293833042   -0.1027125537
 H    0.9217970997   -0.8781132505    0.4478222409
 H   -1.0269999775   -2.2646298917    0.0033009995
 H   -3.3164168228   -1.4894441067   -0.2492641958
 H   -2.7240278256   -1.0922913443    1.3518947417
 H   -4.0804568762    0.7025479139    0.5756540088
 H   -2.4296348727    1.2934138897    0.6546978076
 H   -3.8847525298    0.3681406520   -1.8839858095
 H   -3.7718259914    2.0297833596   -1.3639447995
 H   -2.0011039909    2.0681905937   -2.8743078200
 H   -0.0806248753    0.8049745614   -2.8769082451
 H    0.1629725545   -1.3556534234   -1.8641056608