16

 O    0.0687457035    1.3987492390   -0.0868393263
 C    0.0386202632    0.0204225906   -0.0280321489
 C    0.3540367419   -0.8067413414   -1.3089528101
 C   -0.3322011166   -1.9386754612   -0.4668230496
 C    0.6315257245   -2.0237823746    0.7269626020
 C    0.8744647127   -0.7458332090    1.0181293209
 C   -1.3222195476   -0.8137813680    0.0183006420
 C   -2.0403790291   -0.9538253138    1.2725406963
 N   -2.6199009764   -1.0354611232    2.2701694418
 H   -0.0852063128    1.7544543776    0.7956844417
 H   -0.2260655284   -0.4898049920   -2.1804848376
 H    1.4068668369   -0.9436605980   -1.5566465560
 H   -0.7086230417   -2.8530311399   -0.9176064701
 H    0.9948018231   -2.9292168288    1.1903341773
 H    1.4957573228   -0.2944143829    1.7785844334
 H   -2.0076005761   -0.4941276044   -0.7716669270