19

 C   -0.0749504483    1.5234349904   -0.0137359901
 C   -0.0346442800    0.0027146781   -0.0404983087
 C    1.1980875022   -0.6072020308   -0.7724056060
 O    1.9557210066   -0.5189119222    0.4781882523
 C    0.6858075525   -0.6295511508    1.1736745291
 C    0.3619762154   -2.1247137306    1.3266603779
 O   -0.9792902242   -2.2085362175    1.8065180485
 C    0.5394061144   -2.8024151502   -0.0216256314
 C    0.9357102384   -2.0690861344   -1.0611361917
 H    0.9029668635    1.9324468208    0.2574043068
 H   -0.3546991426    1.9268113037   -0.9930150318
 H   -0.8099725492    1.8807770534    0.7155220424
 H   -1.0030836752   -0.4273307679   -0.3014016791
 H    1.6737751787   -0.0549935692   -1.5862849845
 H    0.6730905544   -0.1033173480    2.1323488857
 H    1.0565948086   -2.5629771178    2.0613216101
 H   -1.2062310524   -3.1377776864    1.9118068637
 H    0.3316075257   -3.8673126590   -0.0957171079
 H    1.0628853414   -2.4707992315   -2.0610453052