21

 C    0.0113778890    1.3391768505   -0.0034532936
 O    0.0563303559   -0.0735188927   -0.0731710988
 C    0.6747053162   -0.5621155609   -1.1974017332
 C    2.1635254760   -0.3754807246   -1.6511981248
 C    1.4964676952   -1.3233235082   -2.6716551331
 C    0.8256610293   -2.0745278694   -1.4703557147
 C    0.2547191170   -0.3692947018   -2.6937713912
 O    2.1769675824   -1.8547950270   -3.7391143585
 C    1.3939765538   -2.6947277727   -4.5661748655
 H    1.0194576634    1.7766495359    0.0060536147
 H   -0.5487249306    1.7678421690   -0.8462713741
 H   -0.4964153221    1.5952341774    0.9286894142
 H    2.4553869054    0.6081877593   -2.0274551958
 H    2.9289711519   -0.8153644199   -1.0073450393
 H    1.4943730426   -2.6244397464   -0.8037437198
 H   -0.0986070423   -2.6217326185   -1.6719750903
 H   -0.7061997923   -0.8021045896   -2.9833555966
 H    0.4136159407    0.6170357012   -3.1370047704
 H    2.0464408580   -3.0503446977   -5.3662600697
 H    1.0034548712   -3.5594099986   -4.0116201549
 H    0.5476654596   -2.1509579653   -5.0087427647