16

 N    0.2031889326   -1.0966803388   -0.3459124610
 C    0.0999051702    0.0425687165   -0.1843777974
 C   -0.0013370226    1.5045256350    0.0192131732
 N    1.2626209309    2.1921425134   -0.0096989921
 C    2.1033367585    2.3380032090    1.0838059175
 N    3.3159482201    2.6635818695    0.8363873704
 C    3.4519491032    2.6442699440   -0.6043794963
 C    3.2351001034    1.3203039092   -1.3028145344
 C    2.0843899511    2.2910270794   -1.1913770524
 H   -0.6649770027    1.9108535539   -0.7530344710
 H   -0.4878570307    1.6880375998    0.9832652086
 H    1.6972103659    2.2069865031    2.0823036009
 H    4.1223876105    3.3760050409   -1.0377687401
 H    3.6756376720    1.2178820619   -2.2879274121
 H    3.2200902285    0.4156539979   -0.7047547168
 H    1.6264067989    2.7478938853   -2.0617816870