16

 C    0.0228540117    1.5028484688   -0.1069026392
 N    0.0102267649    0.0451600929    0.0344907960
 C   -1.1424723686   -0.5727958727    0.8320197717
 C   -0.2024227855   -1.7985129641    1.0215268689
 C    0.6712936673   -0.5389562369    1.2880378776
 C   -0.4971072103    0.0073821725    2.0896688462
 N   -0.6784647465    0.7069097645    3.1220852975
 O   -2.0537837199    1.0098498724    3.2954742077
 H    1.0083096459    1.8036048897   -0.4762013858
 H   -0.7177215074    1.7831114478   -0.8623634004
 H   -0.1896288943    2.0586169477    0.8184089309
 H   -2.1739334097   -0.5380538131    0.4894571622
 H   -0.4019298682   -2.4553001567    1.8682720495
 H    0.0389741417   -2.3221853067    0.0955864814
 H    1.7417953396   -0.4657456460    1.4700032316
 H   -2.0386541307    1.5209702699    4.1116587241