18

 C   -0.0235103612    1.6338307974    0.0802932251
 C    0.0829017063    0.0983431463    0.0091953099
 N    0.7565706022   -0.3429108424   -1.2156064967
 C    0.0684999448   -0.6211588853   -2.3525859574
 O   -1.1325010626   -0.5004121405   -2.4808942587
 C    0.7629342349   -0.4551180499    1.1787740154
 C    1.3561693105   -0.8816950446    2.1370573916
 C    2.0171402760   -1.4526664700    3.3112387121
 O    2.0031282123   -2.8721136932    3.3360830623
 H    0.9701023195    2.0898500807    0.1037603967
 H   -0.5645537521    1.9973550572   -0.7964715225
 H   -0.5645629673    1.9347379103    0.9814245218
 H   -0.9328847577   -0.3080690369   -0.0557946329
 H    1.7519888036   -0.4957605691   -1.1859079631
 H    0.7340036867   -0.9752428332   -3.1641506142
 H    3.0744773431   -1.1657580178    3.3258937820
 H    1.5626859026   -1.0278449240    4.2206920296
 H    1.0892483285   -3.1543765050    3.2241445390