18

 O   -0.0123088358    1.3646023030    0.0275367836
 C    0.0112544246   -0.0378800247    0.0380324884
 C   -0.2669873770   -0.6803102872    1.3633672323
 C    1.1261063060   -0.7377424290    0.7766470887
 O    1.5694086343   -1.9729215679    0.2959327807
 C    1.7517404606   -2.0395023571   -1.1097902058
 C    0.4947615433   -1.6749651563   -1.8788467473
 N   -0.7695651816   -2.1023250975   -1.2617574422
 C   -0.4144198577   -0.6726693932   -1.2630485263
 H    0.6918259615    1.6713031204   -0.5552296790
 H   -0.4278921716   -0.0112405438    2.2006078663
 H   -0.8312379384   -1.6047816887    1.3568292790
 H    1.9014236804   -0.1196562536    1.2284199004
 H    2.5728801646   -1.3790388304   -1.4375916115
 H    2.0484013885   -3.0727989111   -1.3157759141
 H    0.5900446816   -1.7067321055   -2.9622604477
 H   -1.4703132945   -2.2816697729   -1.9754550686
 H   -0.9773582490   -0.0009483547   -1.9060194367