18

 O   -0.0118130068    1.3894329222   -0.4146146312
 C    0.1056169088    0.0203798091   -0.0819129383
 C   -1.2569684534   -0.5496432012    0.2803334391
 O   -2.1731153864   -0.3563913453   -0.8353766985
 C   -2.3673315995   -1.7824915642   -0.9939261338
 C   -1.4609292422   -2.0611452889    0.2000800009
 C   -0.4681511656   -3.1671771776    0.3939250647
 C   -1.6650701573   -3.0416798294    1.3107637084
 H   -0.7182988277    1.4370546867   -1.0711647220
 H    0.5358092726   -0.5647873215   -0.9106284751
 H    0.7914762362   -0.0483126437    0.7703415159
 H   -1.6447153037   -0.0602350653    1.1836251385
 H   -3.4217535664   -2.0626761168   -0.8760551341
 H   -2.0064385379   -2.1401636944   -1.9671147749
 H   -0.4603543235   -3.9743378850   -0.3318786470
 H    0.5103040609   -2.9214346589    0.7937499830
 H   -1.4962497121   -2.7035567137    2.3284428613
 H   -2.4674154059   -3.7658127522    1.2094494433