16

 O    0.3215060594    1.3027420170    0.0107772450
 C    0.0918306956   -0.0717186748   -0.0146881393
 C   -0.5834804487   -0.7242733147    1.1889238531
 C   -1.3461026089   -0.4876519092   -0.0862826286
 C    1.1131362213   -0.8845813441   -0.7346734766
 N    0.8821345264   -2.0055863368   -1.2646910994
 O    2.3626044203   -0.2632248883   -0.6598642261
 C    3.1482266174   -0.2219666096   -1.7773162847
 O    4.2617314856    0.1943963307   -1.7464365125
 H    1.1713765528    1.4549574223    0.4401175247
 H   -0.2992278641   -1.7396474125    1.4389756990
 H   -0.7755604983   -0.0630625917    2.0261684147
 H   -2.0565737515    0.3301731206   -0.1031547684
 H   -1.5809178392   -1.3395808366   -0.7115241553
 H    1.7212974755   -2.4673440538   -1.6125490991
 H    2.6214910165   -0.5917316586   -2.6724713766