13

 O   -0.9015168307    1.1891230287    0.1396085181
 C    0.2294400678    0.8419981102   -0.0874718029
 C    1.4085895265    1.7771119396   -0.0207400116
 N    2.5635602518    1.2286020513   -0.2980728242
 C    3.7140695463    2.0066143997   -0.2643886363
 O    4.8315360833    1.6114734388   -0.5010031445
 N    3.5110541067    3.3706585335    0.0809538542
 C    2.3088731615    3.9193168675    0.3644121961
 C    1.1947969918    3.1390461576    0.3255405426
 H    0.5069835544   -0.1935154368   -0.3656263945
 H    4.3550184172    3.9263565641    0.1021299969
 H    2.3017865500    4.9748824321    0.6123272638
 H    0.2036775835    3.5087072336    0.5398891721