15

 C    0.0987454606    1.5393018420   -0.0068269638
 C   -0.2898563554    0.0745704752    0.0279294451
 O   -1.0685849848   -0.3677911059    0.8374328775
 C    0.3725316613   -0.7960095818   -1.0411247086
 C    0.1342776841   -2.2627713048   -0.9266481309
 C   -0.6545233932   -3.0622228016   -0.1570329793
 N   -0.4123227133   -4.3576995656   -0.5538153967
 N    0.4358633854   -4.3974256256   -1.4761059884
 O    0.8289320581   -3.0407489038   -1.7604644315
 H    1.1562218446    1.6494837885    0.2605184187
 H   -0.0202089753    1.9541110295   -1.0134706185
 H   -0.5125684413    2.0979762595    0.7020199036
 H    0.0213046092   -0.4407820206   -2.0208649392
 H    1.4519597342   -0.5975180220   -1.0469041298
 H   -1.3475270641   -2.8094636130    0.6222944317