16

 O   -0.0018998382    1.4516762434    0.0273770519
 C    0.0481479900    0.0338624277   -0.0377611786
 C   -1.4129502347   -0.5124108788   -0.0883445323
 C   -1.2711994126   -1.7842217710   -0.9351812553
 O   -2.0376212248   -2.0058487030   -2.1720059967
 C   -0.8005227598   -2.1234312409   -2.9439310927
 C   -0.0699795869   -1.5112197554   -1.7766270675
 C    0.6472802592   -0.4780047983   -1.3578404674
 H    0.8640279217    1.7739753055    0.2953097965
 H    0.5815675426   -0.3588121655    0.8425550621
 H   -1.8514621083   -0.6621323583    0.9012909647
 H   -2.0095176606    0.2250062224   -0.6337633367
 H   -1.2846299053   -2.7050955264   -0.3375561741
 H   -0.5737501808   -3.1750166536   -3.1635033299
 H   -0.8235197228   -1.5488452237   -3.8756621806
 H    1.4390431013    0.0519977462   -1.8743251433