16

 C   -0.0791689463    1.4690433031    0.0044988773
 C   -0.0127913534    0.0166632179   -0.0158504612
 C    0.0373138129   -1.1908580215   -0.0404424039
 C    0.1213609397   -2.5932571889   -0.0614682160
 C    1.2312099363   -3.4375422094   -0.0231690576
 N    2.5743008935   -3.0564422682   -0.0246901024
 C    0.6902723230   -4.7407435665   -0.0654545075
 N   -0.6425820956   -4.7237023803   -0.1246443377
 N   -0.9673273783   -3.4312749062   -0.1277514923
 H    0.6654473518    1.9108619514   -0.6673348321
 H   -1.0647511413    1.8187699250   -0.3223115409
 H    0.0977228981    1.8706344828    1.0090930303
 H    2.7064077585   -2.1017447168    0.2841848351
 H    3.1677880810   -3.6777757092    0.5084395952
 H    1.2191100370   -5.6825904903   -0.0556548889
 H   -1.9337335569   -3.1565281129   -0.1688769774