15

 C   -0.0849631503   -1.2497466835    0.0758883802
 C   -0.0477628602   -0.0491236017    0.0886252311
 C    0.0303898962    1.4041737334    0.0724552203
 N   -0.4499714473    1.9615599254    1.3831001958
 C    0.3718407804    2.9021574236    1.6323839413
 C    1.4803776109    2.6973671135    2.6412556710
 C    2.2365004793    2.4514538890    1.2810068646
 C    1.4554920769    1.9993413416    0.0318955828
 N    1.2999139964    3.3577778501    0.5456854956
 H   -0.1263144939   -2.3109651197    0.0687980091
 H   -0.5259861127    1.7902700255   -0.7951792786
 H    1.9154916016    3.5840769336    3.1091424591
 H    1.3199152215    1.8890453963    3.3523750954
 H    3.3102912571    2.6108603861    1.1950422603
 H    2.0505490941    1.8766091568   -0.8702476380