16

 C    0.0428621484    1.5543835428   -0.2438096086
 C    0.0049762739    0.0678010158    0.0158984128
 N    1.2786887734   -0.6692319400   -0.0226937565
 C    0.5344961549   -0.5936719225    1.2394063850
 C    1.2031848285    0.1787726040    2.3658190227
 O    0.2754030380    0.8048997205    3.2331844981
 C    2.1137212556   -0.7132692260    3.1167281123
 N    2.7821309859   -1.4371673503    3.7205585684
 H    0.9575499914    2.0081875160    0.1433268365
 H    0.0093345785    1.7500530565   -1.3204502058
 H   -0.8149236258    2.0507102903    0.2206366321
 H   -0.8594083178   -0.4347721642   -0.4176986329
 H    1.1751289595   -1.5837389978   -0.4519993049
 H    0.0117851177   -1.4875698351    1.5793305395
 H    1.8043011621    0.9828260303    1.9346957638
 H   -0.2351081344    0.1199292795    3.6801000477