18

 C    0.0081695201    1.5380740372   -0.1324342624
 C    0.0011986058    0.0259665687    0.0056826911
 N    0.2509424866   -0.5458388544   -1.3161035209
 C    0.2747387414   -1.8087292372   -1.3633529425
 O    0.0905350576   -2.6288234409   -0.3066296046
 C   -0.1388348400   -1.9121897866    0.8957603287
 C    0.7543158504   -0.6761953431    1.2018414913
 C   -0.3889796179   -0.2281370514    2.1471498937
 C   -1.1111107785   -0.6987748810    0.8592959953
 H    0.9731147325    1.8610856107   -0.5351915636
 H   -0.7577087987    1.8399526832   -0.8535332249
 H   -0.1706899017    2.0679770666    0.8043431488
 H    0.4503029804   -2.3632730819   -2.2816229943
 H   -0.2741188248   -2.6546922982    1.6817880800
 H    1.8282831276   -0.6746697577    1.3884738401
 H   -0.5447202255   -0.8462284074    3.0360584571
 H   -0.4474261169    0.8293170465    2.3958858835
 H   -2.1810578383   -0.7232090331    0.6522829136