17

 C   -0.1037661548    1.5136612654   -0.1390150399
 C   -0.0226214759    0.0236048515    0.0503265823
 O    1.2600879843   -0.5934244667   -0.0805715513
 C    0.6483999667   -0.6101198671    1.2044697017
 C    1.2977367130    0.0706843683    2.3936941301
 O    0.7052176850   -0.5483211638    3.5372353735
 C    0.4310190457   -1.9076946282    3.2334851423
 C    0.1721305532   -1.9504578161    1.7308254749
 O   -0.2987593037   -2.8472337289    1.0838060931
 H    0.7412509199    2.0245395935    0.3286640707
 H   -0.0977937619    1.7559100932   -1.2065831057
 H   -1.0339743383    1.9028397288    0.2879889581
 H   -0.8233108049   -0.5613548306   -0.4050170353
 H    2.3869194407   -0.0913513211    2.3672143846
 H    1.1059016236    1.1432143856    2.4648994589
 H    1.2841606171   -2.5659317164    3.4709409622
 H   -0.4331474897   -2.2414640274    3.8136504599