14

 O    0.0781013376    1.3051548616    0.2379083085
 C    0.0684001782   -0.0313171616   -0.0000674479
 C    0.0811074339   -0.7801244375   -1.1522632298
 C    0.0587821382   -2.1566834003   -0.7202713173
 C    0.0344567597   -2.1275372435    0.6497006513
 N    0.0395852065   -0.8451349844    1.1248973215
 O    0.0113111174   -3.3328125416    1.2388343794
 C    0.0215908202   -4.2170534081    0.1641196520
 C    0.0496505017   -3.5629298706   -1.0306458061
 H    0.0994658709    1.7609114559   -0.6089215538
 H    0.1032029156   -0.3877070314   -2.1567284923
 H    0.0255963722   -0.5173518858    2.0740784728
 H    0.0058414689   -5.2568140222    0.4411378011
 H    0.0620040390   -4.0396256504   -1.9987020795