17

 C   -0.1162151200    1.5693465485    0.3169597053
 C   -0.3341634982    0.0903673973    0.6243929236
 C   -1.2911493664   -0.5870335730   -0.3276668229
 O   -1.7871013983   -0.0382409201   -1.2867918241
 C   -1.6581546220   -2.0403294824   -0.0609380361
 C   -3.1389463270   -2.3393075017   -0.1328208516
 N   -2.2561275717   -2.7780552392   -1.1920912357
 C   -0.8217147580   -2.8033658767    0.8331764272
 N   -0.1446665368   -3.3801768431    1.5718392876
 H    0.5932280623    2.0037633384    1.0256428984
 H    0.2758707503    1.7043234186   -0.6938854086
 H   -1.0545023902    2.1263183084    0.3812562400
 H    0.6097662917   -0.4713269898    0.5937476935
 H   -0.7084338260   -0.0639035063    1.6457592793
 H   -3.5316642443   -3.1229337175    0.5073854728
 H   -3.7840343560   -1.4820731651   -0.3031891064
 H   -2.3046950892   -2.1063268962   -1.9612480324