17

 C    0.7860567156    0.9565308239    0.2059252006
 C   -0.3318922205   -0.0514560479    0.0821366916
 O   -1.1133110273   -0.2877373812    0.9731500803
 C   -0.4232432257   -0.8355608762   -1.2375507010
 C    0.0125606425   -2.2854990051   -1.0070338489
 C    0.1048894741   -3.2580574523   -2.1996715152
 O    1.5397757691   -3.4332194550   -1.9572637642
 C    1.5233374697   -2.5334715021   -0.9238790364
 O    2.4464779732   -2.1349440022   -0.2871648679
 H    1.7426760725    0.4270458228    0.1177922953
 H    0.7430751602    1.6854244225   -0.6112019615
 H    0.7302983825    1.4662326551    1.1681988579
 H   -1.4717726549   -0.8240843444   -1.5525244488
 H    0.1816715177   -0.3737352217   -2.0243176662
 H   -0.5209865900   -2.6964016402   -0.1462174872
 H   -0.4245586868   -4.2071192706   -2.1005547319
 H   -0.0645724419   -2.8212142654   -3.1864583365