18

 C   -0.1073347080    1.5207352132   -0.0194741579
 C   -0.0345328196   -0.0108693226   -0.0208633472
 C   -1.3378029444   -0.5485880354   -0.3880650757
 C   -2.4471605146   -0.9020383536   -0.6992516283
 C    1.2546664585   -0.6835045531   -0.6319020607
 N    2.0074697936   -0.0926667503    0.5415133992
 C    0.7637435198   -0.7084610059    1.1470282603
 C    1.0043229187   -1.9660744877    0.2383979646
 O    0.0722611756   -2.9544956855   -0.0326771412
 H    0.8580323283    1.9447732547    0.2529370433
 H   -0.3976423411    1.8840200648   -1.0100874962
 H   -0.8672220579    1.8601591738    0.6911100917
 H   -3.4216200113   -1.2250065971   -0.9731011309
 H    1.6166724116   -0.5919900448   -1.6576192834
 H    2.8152670298   -0.6850424738    0.7561283787
 H    0.5478987310   -0.6463232597    2.2152362933
 H    1.9368725022   -2.4823672748    0.4885054583
 H   -0.7732126222   -2.5441815621   -0.2602956780