17

 C   -0.0597123363    1.4746035754    0.0242677674
 C   -0.0054446124   -0.0152789540   -0.0339758581
 N    0.0011380093   -0.7391531411   -1.1330414859
 C    0.0468519651   -2.0509847937   -0.7193750982
 C    0.0689545394   -2.1232263075    0.6444222306
 N    0.0438040465   -0.8127116871    1.0834038994
 C    0.0060726551   -0.3777343821    2.4720860602
 C   -1.3409683725   -0.0797395739    2.9587604276
 C   -2.4453509092    0.1741630754    3.3561837788
 H    0.8341620659    1.9046474047    0.4931087795
 H   -0.1233443043    1.8529643746   -0.9964723383
 H   -0.9304972909    1.8308387425    0.5859977869
 H    0.0663456455   -2.8644839135   -1.4285018379
 H    0.1001307968   -2.9482845022    1.3370398578
 H    0.4604359739   -1.1638679362    3.0836620519
 H    0.6422412112    0.5074728320    2.5814789062
 H   -3.4241509632    0.3924842867    3.7064805423