23

 C    0.4652860050    1.6110171958   -0.3522951097
 C    0.0220944379    0.2117833802    0.1116310084
 C    0.2387856815   -0.8153339030   -0.9796424028
 C    1.2226379729   -1.6642197228   -0.6917969338
 C    1.8245674927   -1.3905535260    0.6626017543
 C    0.8182299186   -0.3995665953    1.3238588081
 C    1.5137515198    0.6228574864    2.2289420915
 C   -0.1951023320   -1.2034765714    2.1580135540
 O    0.4888760534   -1.8928392901    3.1970142262
 H    1.5245717897    1.6243411606   -0.6277904105
 H   -0.1070827212    1.9124673737   -1.2361023194
 H    0.3030281203    2.3668559316    0.4219770318
 H   -1.0436878721    0.2839793038    0.3746457135
 H   -0.3265880744   -0.7965315592   -1.9060148262
 H    1.5795613908   -2.4545792513   -1.3438238527
 H    1.9521650662   -2.2884228441    1.2755080529
 H    2.8234015636   -0.9430269052    0.5635620403
 H    2.2665181982    1.1988868856    1.6839200188
 H    0.7955930410    1.3295058944    2.6610413016
 H    2.0096173368    0.1099269164    3.0569119081
 H   -0.9406435328   -0.5086773949    2.5778764511
 H   -0.7262785018   -1.9092546965    1.5015943293
 H   -0.1489926042   -2.4362055886    3.6675316452