16

 C   -0.0059415209    1.4952695629    0.0129711972
 C   -0.0093559527    0.0413050266   -0.0143678202
 C   -0.0246711377   -1.1604166230   -0.0410975448
 C   -0.0096965964   -2.6191682605   -0.0656994392
 O   -1.3601150400   -3.0872903600    0.1319892749
 C   -1.4809912393   -4.3769350165    0.5216143922
 N   -2.6276174759   -4.8802359634    0.6629309980
 C    0.5562675067   -3.1455204336   -1.3143934548
 C    1.0211391985   -3.6049437794   -2.3215080032
 H    0.5969573770    1.8761262903    0.8440783846
 H    0.4019936514    1.9067100536   -0.9163166737
 H   -1.0231668235    1.8831126837    0.1321772987
 H    0.6068521169   -2.9809013400    0.7724987887
 H   -0.5194389183   -4.8796368541    0.6918861195
 H   -2.5480721431   -5.8451243576    0.9773669329
 H    1.4276676674   -4.0010449390   -3.2195795508