14

 O   -0.5316702131    0.2775676195    0.0769586199
 C    0.0331858412    1.3399225357    0.0938726217
 C    1.4245980176    1.5801745508   -0.4647309821
 C    1.4561594515    2.7823051867   -1.3814133683
 O    1.2407093554    4.0571664457   -0.7779426641
 C    2.5379398110    3.7945798144   -1.3410644100
 C    3.6494468953    3.6953985358   -0.4350823226
 C    4.5984984865    3.6209493528    0.2989946196
 H   -0.4378765845    2.2417169985    0.5423892680
 H    2.0996811832    1.7633161834    0.3808387344
 H    1.7564615698    0.6793096794   -0.9889217025
 H    0.9465177112    2.6556134919   -2.3380227760
 H    2.7379239172    4.3490807709   -2.2572366084
 H    5.4346438176    3.5606097746    0.9516915004