19

 C    0.1074265937    1.4556841531    0.3491833469
 C   -0.0114264177   -0.0299627595    0.0079405887
 O   -1.3726930830   -0.4507043800   -0.1193597233
 C    0.7573414473   -0.4404467832   -1.2457464617
 C    2.1380867702   -1.0702715273   -1.1184899556
 C    0.9853198671   -1.9635705388   -1.4006083788
 O    0.4916342946   -2.7809318708   -0.3958543538
 C    0.3645065405    0.2040716835   -2.5126148258
 O   -0.6355756981    0.8772055735   -2.6563279104
 H    1.1536895943    1.7287011883    0.5228015311
 H   -0.2838002988    2.0795301860   -0.4574753307
 H   -0.4599385387    1.6657549270    1.2597643831
 H    0.3801273257   -0.6156001023    0.8440777334
 H   -1.7264772621    0.0305134992   -0.8800941501
 H    2.8573603015   -0.8929786075   -1.9120018285
 H    2.5554376943   -1.0962486131   -0.1181881690
 H    0.9009455357   -2.3681570890   -2.4091448613
 H   -0.4458152815   -2.5620381595   -0.2890935158
 H    1.0313399851   -0.0063925895   -3.3797622184