18

 O    0.0921816105    1.2148409112   -0.3799809055
 C   -0.0979041461   -0.1460408025   -0.0575041402
 C   -1.5851076944   -0.5124353836    0.1165870964
 C   -2.3586435886   -0.4733088769   -1.2458012998
 C   -2.1838656767   -2.0109416131   -1.3648275111
 C   -1.7997763516   -2.0644283631    0.1384885464
 C   -2.1460305206    0.2609078451    1.2111730619
 C   -2.5795418448    0.9326463703    2.1118696891
 H   -0.3222271326    1.7310585823    0.3222233751
 H    0.3219075696   -0.7194873897   -0.8905902112
 H    0.4475421586   -0.4311032821    0.8559330990
 H   -3.4017863881   -0.1817851043   -1.1091116933
 H   -1.9096581650    0.1615183583   -2.0121242908
 H   -3.0644146651   -2.5823480098   -1.6640012000
 H   -1.3564142281   -2.2928733196   -2.0205370602
 H   -0.9280827097   -2.6611757859    0.4221817400
 H   -2.6385503649   -2.3451111851    0.7783018329
 H   -2.9844068925    1.5059155884    2.9090141213