15

 O   -0.0537635776   -0.0778676045    0.0050231726
 C   -0.0088300647    1.1326141363    0.0097895666
 C   -1.2303755493    2.0930340032    0.0316188742
 C   -0.6965522885    3.5594907845    0.0306809069
 C    0.7874984844    3.3527534425    0.0085209924
 C    1.1360524509    2.0264312572   -0.0024810226
 N    2.5113073566    2.0047247558   -0.0221645777
 C    2.9033477806    3.3121292438   -0.0219413629
 N    1.8860917130    4.1613302018   -0.0034894141
 H   -1.8588149027    1.8765040958   -0.8374127182
 H   -1.8338008173    1.8685052024    0.9162094053
 H   -1.0454788457    4.1249155161   -0.8398620989
 H   -1.0203659723    4.1168828131    0.9159834498
 H    3.1077738722    1.1938756444   -0.0343241643
 H    3.9469787903    3.5927235876   -0.0355985690