18

 C    0.0319253944    1.5426057704    0.0720636113
 C    0.0203197104    0.0440512153    0.0179616797
 C   -1.2672586749   -0.7867094559    0.2532360565
 C   -0.3181357620   -1.7936326144    0.8680687483
 N    0.7252274789   -0.7800311333    1.1633739055
 C    0.9458697865   -1.8010372290    0.0472857548
 C    0.8226186115   -0.7482840348   -1.0378759790
 C    1.9567990903   -2.8696093750    0.2041927403
 O    2.0104853469   -3.6147927167    1.1524608633
 H    1.0566044510    1.9266782873    0.0561752132
 H   -0.5029274222    1.9595999265   -0.7892396025
 H   -0.4538995361    1.9050363414    0.9833201322
 H   -1.9003758515   -0.3293789546    1.0182649092
 H   -1.8733667297   -1.0686896176   -0.6135915355
 H   -0.5145879872   -2.6065415277    1.5568285816
 H    0.3266203120   -1.0020194457   -1.9804611675
 H    1.7881650696   -0.2755131520   -1.2406749193
 H    2.6865583522   -2.9448849640   -0.6335570721