18

 C   -0.2622413103    1.4600024563    0.1111690295
 C    0.0820074899   -0.0133493689    0.0229675221
 N   -1.0281413372   -0.9791916650    0.2769450222
 C   -0.4506608796   -1.3418108476    1.5917493628
 C    0.8874485739   -0.7053395281    1.1510806493
 C    1.8528014119   -1.6279593905    0.3810925440
 O    1.7630329942   -1.2995177532   -1.0173592431
 C    0.8017094515   -0.3779982111   -1.2762455913
 O    0.5907193315    0.0463884501   -2.3761019965
 H    0.6380562579    2.0811430396    0.0645333196
 H   -0.8974288834    1.7382000149   -0.7356444430
 H   -0.7892582863    1.6852880884    1.0437610542
 H   -1.9565036617   -0.5716178240    0.2876183889
 H   -0.8944495624   -0.8149376780    2.4465957440
 H   -0.4486200067   -2.4169370680    1.8047992777
 H    1.3985126418   -0.0751119216    1.8779757435
 H    2.8950518447   -1.4882884467    0.6802787382
 H    1.5961469802   -2.6857487665    0.4965093878