21

 O    0.1496702108    1.3950186800   -0.1229229161
 C    0.0091984634    0.0073400765    0.0280982897
 C    0.2158885275   -0.6827046565    1.4121486886
 C   -0.4535816854    0.1536661072    2.5153126841
 C   -1.9872259052    0.2375654657    2.3033637507
 C   -2.3967785204    0.1575909152    0.8103559823
 C   -1.3927733554   -0.6780928428    0.0005298978
 C   -0.7555436194   -1.7832181089    0.8830961983
 O   -0.1327084137   -2.7422857801    0.0470814137
 H   -0.4243576798    1.8428446288    0.5058690275
 H    0.6621141756   -0.4394810749   -0.7208706053
 H    1.2297682653   -0.9905356909    1.6865140615
 H   -0.2438661170   -0.2731291578    3.5019590788
 H    0.0021358562    1.1528916461    2.5208064767
 H   -2.4512563385   -0.6024445869    2.8294772605
 H   -2.3944434957    1.1398661681    2.7706902979
 H   -3.4023074200   -0.2683965233    0.7293960863
 H   -2.4610484208    1.1577091723    0.3611119377
 H   -1.7914513323   -0.9917943033   -0.9665551326
 H   -1.4039745356   -2.2735308651    1.6208490132
 H    0.4814945103   -3.2507665193    0.5865001685