15

 C    0.1145794156    1.5676391903   -0.1061044997
 C   -0.0201147769    0.0577790857    0.0633831305
 O    0.5170403290   -0.6189555058   -1.0753251747
 C    1.4443462792   -1.6235165937   -0.6874663223
 C    1.5962148012   -1.4712115051    0.7951086160
 C    0.7645706741   -0.5225169930    1.2310536382
 C    0.5817214208   -0.0928675131    2.5698791106
 N    0.4018514847    0.2848528758    3.6502160798
 H    1.1670617243    1.8516107876   -0.1937443380
 H   -0.4098814079    1.8853958578   -1.0109020183
 H   -0.3228814881    2.0896499531    0.7504542074
 H   -1.0866799971   -0.1992856138    0.1684170761
 H    1.0685141311   -2.6257278731   -0.9526078888
 H    2.3940888428   -1.4831184054   -1.2246370703
 H    2.2723398971   -2.0613839072    1.3992321337