18

 C    0.0338834934    1.5579088632   -0.1831753546
 C   -0.0232410082    0.0429627261    0.0696286992
 C   -1.4132282751   -0.5079569518   -0.0155082754
 C   -1.9269971338   -1.4159250977   -0.9076345422
 N   -3.2548373718   -1.5807734542   -0.5686626862
 C   -4.2164255220   -2.4454980538   -1.2186837710
 C   -3.4770084385   -0.7695350566    0.5035380779
 N   -2.4001885072   -0.1113522943    0.8642245751
 H    1.0536963373    1.9382196573   -0.0660730472
 H   -0.3065115156    1.7991126849   -1.1955061011
 H   -0.6150537997    2.0834185942    0.5223903370
 H    0.6173252727   -0.4826308910   -0.6478131408
 H    0.3840196407   -0.1673529403    1.0665580080
 H   -1.4851103105   -1.9512969515   -1.7325586741
 H   -3.9047296052   -3.4933394524   -1.1619699075
 H   -5.1811019700   -2.3430270456   -0.7177440512
 H   -4.3410587548   -2.1728360571   -2.2714664867
 H   -4.4480765315   -0.7090402793    0.9744921109