23

 C   -0.6666213805    1.4636374227   -0.3588128284
 C   -0.1283404154    0.0292139590   -0.3751855677
 C   -1.2581101103   -0.9858984009   -0.1733228320
 C    0.8694493658   -0.2999782475   -1.5408038724
 C    2.0515579429   -0.5088407465   -0.5300509436
 C    2.5982776050   -1.9377685182   -0.4473145323
 C    3.1896883050    0.5117892336   -0.6327810368
 C    1.0506371581   -0.1817192587    0.5987180860
 O    1.1516800352   -0.1157408963    1.7918447065
 H    0.1308816566    2.1991890062   -0.5044919413
 H   -1.4037105248    1.6049528734   -1.1572709997
 H   -1.1519391502    1.6808844132    0.5979134665
 H   -2.0060284422   -0.8892704523   -0.9683618906
 H   -0.8868728853   -2.0156104537   -0.1853818960
 H   -1.7559218673   -0.8205794032    0.7873581515
 H    0.6080301884   -1.1951523142   -2.1104553930
 H    1.0233498714    0.5249985560   -2.2407378818
 H    3.1922644555   -2.1724289915   -1.3377752704
 H    3.2392072645   -2.0534823959    0.4323864393
 H    1.7945159826   -2.6774425556   -0.3757616894
 H    2.8121226498    1.5373829227   -0.6950047411
 H    3.8430568733    0.4479880782    0.2430576616
 H    3.7945692222    0.3218519896   -1.5265645951