15

 O   -0.7854572051    0.3362727534    0.3345268511
 C    0.1516324024   -0.4690735706   -0.3170984567
 C    1.0433832003    0.3735420418   -1.2219973455
 O    0.8456084153    1.5575388701   -1.3370501862
 C    1.0577067631   -1.2692310367    0.6402541514
 O    1.8696109261   -2.0621298203    0.2093636399
 N    0.8566261224   -0.9734750652    1.9588651984
 C    1.5581474997   -1.5655225095    3.0003685491
 N    1.3009126645   -1.2465876388    4.2007306995
 H   -0.6282807545    1.2376207905    0.0022753698
 H   -0.3347465586   -1.2237598199   -0.9562570613
 H    1.8580740345   -0.1606915181   -1.7397368525
 H    0.1309118730   -0.3020909699    2.1793739263
 H    2.2992447557   -2.2834681017    2.6425526696
 H    1.8991104411   -1.7661906649    4.8406895372