20

 C    0.0125425674    1.4653893529   -0.0008021464
 C   -0.0099649499   -0.0431559878   -0.0124255762
 C   -0.8846760717   -0.8090034097    0.9542801924
 C    0.6196664051   -0.9266524919    1.0524415811
 C    1.3742987568   -1.9401278839    0.1669155108
 C    0.3713582124   -2.2798709992   -0.9688479824
 C    0.5144303902   -0.7666912849   -1.2782761749
 C    2.0210196956   -0.9633502418   -0.8771288789
 H    0.9658300149    1.8556516887   -0.3766224273
 H   -0.7835695101    1.8822532241   -0.6300522360
 H   -0.1299436960    1.8578852619    1.0113919907
 H   -1.3504157892   -0.2025868088    1.7262711851
 H   -1.5025201251   -1.6439246822    0.6460263249
 H    1.1315104205   -0.5100601833    1.9136870845
 H    1.9507861455   -2.7171732211    0.6702721881
 H    0.8413408171   -2.8902978693   -1.7429203607
 H   -0.6061678253   -2.6997070167   -0.7299781456
 H    0.2219261333   -0.3491029522   -2.2431626486
 H    2.5620856774   -0.0957322474   -0.4890784181
 H    2.6129743710   -1.4710674676   -1.6441099023