20

 C    0.2202063382    1.5368265123   -0.0307694881
 C   -0.0093250156    0.0202932551   -0.0236684384
 O   -1.4194962442   -0.2464139742    0.1281553107
 C    0.5004283333   -0.6216471341   -1.2932525127
 C    1.0081591679   -1.8510185650   -1.3190126342
 C    1.1635006189   -2.6902503589   -0.0785143183
 N    1.1757207252   -1.9619797709    1.1920917496
 C    2.0858167952   -0.8206418794    1.2989767448
 C    0.6167746191   -0.6101273938    1.2119212133
 H    1.2843374551    1.7778306568   -0.1139706063
 H   -0.2984743878    1.9965244581   -0.8808021660
 H   -0.1714800649    1.9836532012    0.8873822392
 H   -1.8570864932    0.0232346166   -0.6865902531
 H    0.4039016954   -0.0407350303   -2.2086427877
 H    1.3255394361   -2.2965483435   -2.2592502597
 H    0.3414255745   -3.4187239369   -0.0309131609
 H    2.0866882036   -3.2805066085   -0.1357323761
 H    2.6003333405   -0.7238761971    2.2512079579
 H    2.6792811296   -0.5507795671    0.4276922134
 H    0.0600024731   -0.3747682204    2.1171318326