17

 C   -0.0694513203    1.5494935179    0.1009406711
 C    0.0070933534    0.0287755836   -0.0070967009
 C    0.7419166410   -0.4881163512   -1.2987245128
 C    0.7433094544   -1.9629947180   -1.2745501274
 C    0.7235122340   -3.1617122887   -1.2178976696
 C    0.0318074357   -0.0196272396   -2.5042466490
 C   -0.5688243078    0.3686092942   -3.4683481460
 C    2.1335545742    0.0018179204   -1.3171223009
 C    3.2631436246    0.4078111498   -1.3038751341
 H    0.9289671636    1.9946767436    0.1270287281
 H   -0.6136255362    1.9789592580   -0.7447233117
 H   -0.5916799380    1.8310721096    1.0199453275
 H    0.5417200370   -0.3955201938    0.8478192256
 H   -0.9944022258   -0.4111983915   -0.0198208853
 H    0.7147530740   -4.2231979948   -1.1834103538
 H   -1.0882797212    0.7040108933   -4.3319716575
 H    4.2654782475    0.7592165871   -1.3075252333