15

 C   -0.0158449018    1.4566668653    0.1324964046
 C   -0.0156263891   -0.0257276020   -0.0388195923
 N   -0.0742976721   -0.6111164623   -1.1649939952
 C   -0.0642958736   -2.0315846491   -1.1948706529
 O   -0.1061417594   -2.6294930043   -2.2355764827
 N   -0.0040592802   -2.7227425270    0.0451946607
 C    0.0515165657   -2.0442228236    1.1179168426
 C    0.1206144417   -2.6437138149    2.4826788386
 O    0.0548105538   -0.6725223864    1.1696593401
 H    0.8942037105    1.7761455661    0.6502459724
 H   -0.0737924099    1.9319131229   -0.8452537340
 H   -0.8662200629    1.7646475283    0.7492155207
 H    0.1167490381   -3.7291980395    2.3995282942
 H    1.0291600656   -2.3109451935    2.9946683496
 H   -0.7317860862   -2.3114646001    3.0838204334