14

 C    0.0763380713    1.4423937665    0.0461878868
 C   -0.0796645508   -0.0297463460    0.0034148837
 C   -1.1335384574   -0.8431987824   -0.2404206004
 N   -0.6323720069   -2.1363049461   -0.1332491187
 N   -1.0170482213   -3.4372552946   -0.2274231743
 C    0.1410048294   -4.0481807364    0.0327348608
 N    1.2311223026   -3.2542242948    0.2847032626
 C    0.6789378174   -2.0705691389    0.1652593083
 O    1.0660349656   -0.7872506936    0.2599664806
 H    0.8092397772    1.7847827407   -0.6922756076
 H   -0.8811460414    1.9214174940   -0.1689592716
 H    0.4175435484    1.7763634889    1.0319612748
 H   -2.1583057915   -0.6146561334   -0.4722084170
 H    0.2045031774   -5.1259620038    0.0416113520