19

 C   -0.0711278899    1.5089733168   -0.0499251507
 C    0.0072491897    0.0090582754    0.0112550730
 C   -0.8562041261   -0.8167836620    0.9071991213
 O   -1.6661205142   -1.8423316461    0.3986132436
 C    0.6275256356   -0.9483246661    1.0732567906
 C    1.1985099290   -1.8343609322   -0.0379252489
 C    0.6534401751   -0.8372620934   -1.1151647498
 C   -0.2252538525   -1.3531623081   -2.2311354284
 O   -0.0597658765   -1.0647599615   -3.3921610161
 H    0.8989514803    1.9468937525   -0.3094844000
 H   -0.7945078667    1.8335181065   -0.8073544763
 H   -0.3838615886    1.9306456847    0.9106406412
 H   -1.3359018141   -0.2236391487    1.6874179238
 H   -1.7325879947   -2.5317473128    1.0687304126
 H    1.1260812403   -0.7112908709    2.0066795731
 H    2.2878157420   -1.8855520141   -0.0481463415
 H    0.7963924967   -2.8511273083   -0.0792581352
 H    1.4713323853   -0.2771784965   -1.5758474251
 H   -1.0487363406   -2.0218324450   -1.9119741773