18

 C   -0.0456961204    1.5609447827    0.0637620038
 C    0.0197681530    0.0396885620   -0.0338540690
 C    0.7308874013   -0.4499798932   -1.2756422427
 O    1.2059000451    0.2780834985   -2.1171941590
 C    0.8372946756   -1.9882853396   -1.4446698875
 O    0.3622878447   -2.7163486573   -0.6031145491
 C    1.5484467796   -2.4779538489   -2.6864391765
 C    1.6139149019   -3.9992100744   -2.7840526442
 H    0.9567176728    1.9971188935    0.0773106568
 H   -0.5727541022    1.9872230917   -0.7940049061
 H   -0.5669364453    1.8651870193    0.9752431948
 H    0.5235991718   -0.4073770394    0.8330086247
 H   -0.9784567222   -0.4170470333   -0.0233705794
 H    1.0446399460   -2.0308880239   -3.5533155304
 H    2.5466722741   -2.0212186038   -2.6968950527
 H    0.6115017245   -4.4353848499   -2.7976328241
 H    2.1351838087   -4.3034523096   -3.6955174908
 H    2.1409460410   -4.4254878444   -1.9262690688