17

 C   -0.4617145342    1.5049026080    0.0027448888
 C   -0.0332893744    0.0501751948   -0.0012029348
 C    0.9888484258   -0.5025933474   -1.0524586363
 O    1.7091838918    0.3838635238   -1.8692647898
 C    1.7950930553   -1.0129837121    0.1302695936
 C    2.1830203811    0.0607198206    1.0754800275
 C    2.5694855533    1.4086929165    0.7307182008
 N    2.9421013683    2.4898189721    0.5584641059
 N    0.8035777994   -0.4774100224    1.1520579296
 H    0.3663318789    2.1935110516   -0.1623666618
 H   -1.2056582323    1.6691779814   -0.7849664532
 H   -0.9343380108    1.7513430272    0.9588790250
 H   -0.9214972753   -0.5886042019   -0.0012336264
 H    0.5595909774   -1.3270752138   -1.6359094166
 H    1.1212126763    0.7286284589   -2.5493032146
 H    2.2322370336   -2.0021222282    0.2160379604
 H    2.7535619056   -0.2952073590    1.9308176219