18

 C    0.0457341131    1.4346248460    0.0684305676
 N   -0.1154807077   -0.0113649526    0.0925245239
 C    0.5792566546   -0.7231834936    1.0613789558
 N    1.1841889931   -0.1132662275    2.0733858071
 N    1.6729116765   -1.1484712911    2.8291746872
 C    1.3921385897   -2.3501777079    2.2892112385
 O    1.8140588344   -3.4669172354    2.9250586252
 C    0.6733022700   -2.1459850162    1.1287670269
 C    0.0991983320   -3.1592768177    0.1906654838
 H    1.0877642992    1.7564455578   -0.0749397834
 H   -0.5709298333    1.8453336786   -0.7350534588
 H   -0.2956076564    1.8502077261    1.0195575278
 H   -0.0568101127   -0.4378601872   -0.8209567118
 H    2.1858979337   -0.9615860159    3.6714970136
 H    1.5466201937   -4.2322946886    2.4061003057
 H   -0.9485392163   -2.9365420827   -0.0434920945
 H    0.6395732394   -3.2180254069   -0.7640733827
 H    0.1154242068   -4.1678020552    0.6223584480