22

 C   -1.1526551891    0.0814072105   -0.7659954466
 C    0.2338395415   -0.4983579633   -0.4487874884
 C    1.2448529887    0.5950128021   -0.0724077966
 N    0.1710426601   -1.5606341723    0.5648246818
 C   -0.2182297936   -1.3419768670    1.7305830552
 C   -0.3966829455   -2.1958205685    2.9682585035
 C   -0.8920536756   -0.8830278140    3.6168744943
 C   -0.0867047913   -0.2918032143    4.7521936512
 O   -0.6589835453   -0.1753649585    2.3505340332
 H   -1.5566388339    0.6238006073    0.0931019239
 H   -1.0892912315    0.7720796127   -1.6134768948
 H   -1.8518974807   -0.7178545931   -1.0295773749
 H    0.6018197073   -0.9889239633   -1.3580378858
 H    0.9106311121    1.1505561316    0.8080906970
 H    2.2220548351    0.1546429782    0.1477588442
 H    1.3681650631    1.3003369305   -0.9009708377
 H   -1.1310540654   -2.9973527343    2.8731317164
 H    0.5304011057   -2.5994383793    3.3813200191
 H   -1.9636180872   -0.8724239917    3.8399747408
 H    0.9824355963   -0.3067803216    4.5192237872
 H   -0.3850073797    0.7440475288    4.9391155213
 H   -0.2511541211   -0.8658241206    5.6703281857