8

 O   -0.1015026945   -0.0442921109    0.0003977107
 C   -0.0522259136    1.1418786728    0.0078354834
 N    1.1854553705    1.8719970983   -0.0004089472
 N    2.4180224057    1.3519346067   -0.0170270573
 N    3.2070529809    2.3634014582   -0.0186088468
 N    2.4644034722    3.5176765792   -0.0028808118
 N    1.2203759645    3.2102009313    0.0082069426
 H   -0.8943598457    1.8484149645    0.0214642264