22

 C   -0.2041832124    1.5022689213    0.0186793347
 C    0.0712484190    0.0317566798   -0.0205873680
 C    0.2293055136   -0.8404901471   -1.2008483897
 C    1.4071155953   -1.7962131849   -1.0555914067
 C    1.9134476559   -1.5361899289    0.3865097735
 C    0.7142171512   -0.8730885519    1.0852612648
 C    0.9861556154   -0.3108945592    2.4652505428
 C   -0.5356782179   -1.7713206422    0.8924142512
 N   -0.9759730643   -1.0124540410   -0.3248218397
 H    0.7244125206    2.0822252613   -0.0401379731
 H   -0.8381596205    1.7905127336   -0.8251841764
 H   -0.7219539890    1.7922154626    0.9398116250
 H   -0.0495988422   -0.4821478783   -2.1868768024
 H    1.1016924811   -2.8373771791   -1.2071112078
 H    2.1714704751   -1.5804278055   -1.8080371683
 H    2.2311557404   -2.4516451104    0.8982998281
 H    2.7678060221   -0.8481160794    0.3784244523
 H    1.7926507757    0.4313679063    2.4424030072
 H    0.0978328444    0.1712145275    2.8869055069
 H    1.2896557753   -1.1053093194    3.1568272226
 H   -0.3747821573   -2.8460208314    0.7419604533
 H   -1.2904646013   -1.6348587335    1.6718944595