15

 O    0.0671421657    1.3360439270   -0.0212460286
 C    0.0482666083   -0.0157201700   -0.0013442883
 C    0.0337625052   -0.6979236483   -1.2172044586
 C    0.0142291016   -2.0866642595   -1.2314594402
 C    0.0088719584   -2.8139014604   -0.0391450704
 C    0.0232428780   -2.1400718348    1.1730642507
 C    0.0430714801   -0.7376713862    1.2125251160
 C    0.0582868511   -0.0061549382    2.4319636148
 C    0.0719061291    0.6816862125    3.4233882918
 H    0.0752887036    1.6520257021    0.8941616134
 H    0.0381328958   -0.1206868822   -2.1344154708
 H    0.0030591122   -2.6075991586   -2.1831495725
 H   -0.0063988822   -3.8974237938   -0.0578619477
 H    0.0194015367   -2.6852929584    2.1100450601
 H    0.0834430363    1.2564798889    4.3164241905