16

 C   -0.0518049703    1.4578460468    0.0349257857
 C   -0.0027378058    0.0078510484    0.0179279030
 C    0.0405802040   -1.2027026140    0.0035746957
 C    0.0880831155   -2.5578601462   -0.0124471164
 C    0.1460780627   -3.7707492260   -0.0274111526
 C    0.1182048567   -5.1879920340   -0.0413383460
 C   -1.2112988517   -5.9036816736    0.0030695390
 N    1.2589594007   -5.7908735401   -0.0923958914
 O    1.0870646415   -7.1734815066   -0.1002745735
 H    0.9557575760    1.8877851114    0.0078029007
 H   -0.6036411473    1.8454252738   -0.8290179516
 H   -0.5480095357    1.8265984527    0.9398766011
 H   -1.3229252577   -6.5417420758   -0.8790698714
 H   -1.2540963197   -6.5605755898    0.8773697735
 H   -2.0353601785   -5.1918431780    0.0429910795
 H    1.9956687398   -7.4917218491   -0.1392233854