15

 C   -0.0181897255    1.4793601047   -0.0169493141
 N   -0.0071714310    0.0329940038    0.0059060380
 C   -0.0365722141   -0.8010649702   -1.0937370967
 C   -0.0154417575   -2.1339101008   -0.7178915824
 C    0.0292968337   -2.0908416464    0.6943580003
 C    0.0338385796   -0.7759508571    1.1173106087
 C    0.0786621343   -0.8607955505    2.5257356955
 N    0.0993595732   -2.1198734871    2.9154660043
 O    0.0681285672   -2.9189301298    1.7512113584
 H    0.8838943630    1.8872886196    0.4515233172
 H   -0.0532186967    1.8175726286   -1.0539190774
 H   -0.8947358225    1.8746589524    0.5074980962
 H   -0.0709370183   -0.3735343603   -2.0845782232
 H   -0.0305170231   -2.9848853373   -1.3777721106
 H    0.0973729376   -0.0910730694    3.2835280558