18

 C    0.0213605688    1.4143937495    0.0356198825
 C   -0.0075045658   -0.0992164305    0.0145342073
 N    1.0750847905   -0.6443590929   -0.7716849860
 C    0.8786639206   -1.7398805397   -1.3772514481
 O   -0.1928090310   -2.5654218387   -1.2901451356
 C   -1.0581592754   -2.2574911376   -0.1882002458
 C   -0.3495849789   -2.2813356505    1.2041122776
 C   -0.5215636764   -0.7659549510    1.2779603838
 C   -1.3545168149   -0.7664321162   -0.0140356614
 H    0.9727683676    1.7650805466    0.4466252034
 H   -0.0725641770    1.8149470374   -0.9784242281
 H   -0.7935143986    1.8194634870    0.6431545226
 H    1.6148691470   -2.1382568737   -2.0726432670
 H   -1.9152402774   -2.9200434465   -0.2924412505
 H   -0.9477370190   -2.8121251390    1.9487339554
 H    0.6704548426   -2.6754014198    1.2154073628
 H   -0.6894886573   -0.1881716294    2.1788787931
 H   -2.2758854453   -0.2599314952   -0.2705659359