18

 C   -0.0321611005    1.5207056836   -0.0512947233
 N    1.4809400332    1.5531980479    0.0153799929
 C    1.5253502162    0.0694526983   -0.0444048554
 C    1.5498588462   -0.7274894522    1.2867389764
 N    0.0478808869   -0.6964843464    1.3133513340
 C    0.0080342957   -0.0371064595   -0.0046377507
 C    0.0522137047   -0.8922030595   -1.2808761819
 N    0.7080145683   -0.0543244973   -2.3102323048
 C    1.5574023598   -0.7662773857   -1.3307706436
 H   -0.4938451390    1.9836189563    0.8245960483
 H   -0.4503103345    1.9376502474   -0.9709505315
 H    1.8939182636    1.9894113949   -0.8022677964
 H    1.9996244077   -1.7260799593    1.2216775495
 H    1.9950503773   -0.1891024432    2.1283869187
 H   -0.4080043871   -1.6003051600    1.3631028811
 H   -0.5987031670   -1.7095243055   -1.5747902896
 H    0.7259870784   -0.5966676617   -3.1728276200
 H    2.3168572601   -1.4638690484   -1.6693346537