15

 O   -0.1805649049    0.0356237065    0.1694003322
 C   -0.0032858032    1.2080867546   -0.0581586813
 C    1.2727078120    1.9056340535   -0.0189549766
 C    1.6702811995    3.2755911618    0.5255640225
 C    2.7901081609    2.5660356922    1.2749442306
 N    2.6915121637    1.4094171002    0.3001990338
 C    3.1280786159    2.0743033928   -0.9901177941
 C    1.8885559559    2.9574370282   -0.9387598545
 H   -0.8452964343    1.8883435998   -0.3312985714
 H    1.0038184378    4.0663987418    0.8469124323
 H    3.7789652762    3.0345297550    1.3245193885
 H    2.4839842503    2.2298303040    2.2674783642
 H    4.1179357912    2.5414094238   -0.9475453269
 H    3.0914103015    1.3461747480   -1.8027296683
 H    1.3871638073    3.5073152180   -1.7255629512