18

 C   -0.2378326994    1.5393594923   -0.0830722532
 C   -0.0337005450    0.0473363115    0.0094269633
 C    1.3097117847   -0.6083854355   -0.2038028544
 N    2.5067766940    0.1617666208   -0.3454237317
 C    3.1061875522    0.9359037302    0.6210267425
 O    4.0956602157    1.6088528652    0.3813513537
 C    2.4837199402    0.8708125350    1.9648628801
 C    1.3948876587    0.1374691483    2.2235270724
 C    0.6907842357   -0.6326596072    1.1812600810
 H    0.6025000913    2.0991925363    0.3312146208
 H   -0.3574043382    1.8441509295   -1.1283111024
 H   -1.1392754591    1.8421180490    0.4596496456
 H   -0.8698253092   -0.5417663536   -0.3584623772
 H    1.3349682116   -1.5369708450   -0.7664429106
 H    2.9372719168    0.2260504413   -1.2558131076
 H    3.0000262276    1.4383587394    2.7297075486
 H    1.0081676618    0.0749752511    3.2379360982
 H    0.2521797505   -1.5666857284    1.5177372610