17

 N    0.0529318569    1.3053501256   -0.0459846315
 C   -0.0650570997   -0.0549800553   -0.0840804267
 N   -1.1397906329   -0.7320023456    0.0518487974
 C   -0.7380116122   -2.1377653643    0.0286919173
 C   -1.3060714763   -2.9094626252   -1.1771547163
 C   -0.2430197955   -2.6632849362   -2.2499557489
 O    1.0017535270   -2.6559108863   -1.5318908695
 C    0.7947733222   -2.1145116723   -0.2685079577
 O    1.1221384313   -0.7053004628   -0.2255774548
 H    0.8474415319    1.6877164446   -0.5341650213
 H   -0.8143290515    1.8019564985   -0.1750629146
 H   -0.9846304698   -2.6237713948    0.9774757340
 H   -1.3727830849   -3.9781668212   -0.9505892116
 H   -2.2957731371   -2.5431266390   -1.4537378261
 H   -0.1760160578   -3.4494254809   -3.0049212069
 H   -0.3964380093   -1.7016483504   -2.7575039897
 H    1.4671580078   -2.6110287945    0.4323320069