15

 O   -0.0404150188   -0.0544735601    0.2995686966
 C   -0.0474149364    1.1532768467    0.1249577715
 C    1.1637646943    1.9670457273    0.1424813246
 C    2.1797141343    2.6102901425    0.1628361731
 N   -1.1764894130    1.8633400339   -0.1027417349
 C   -1.4831411179    3.2765819033   -0.3403180655
 C   -2.9847522425    2.8752943281   -0.4495159726
 C   -2.5596855683    1.3993375762   -0.1897738440
 H    3.0868149414    3.1635285153    0.1840504183
 H   -1.2281618304    3.9330578604    0.4980717650
 H   -1.0334741115    3.6808997635   -1.2531179027
 H   -3.6250833893    3.3061866387    0.3200818244
 H   -3.4307379835    3.0545748085   -1.4277449128
 H   -2.7340703847    0.6977407910   -1.0117690263
 H   -2.9286154637    0.9495224648    0.7375219654