18

 C   -0.4392049036    3.2931467360    2.6430683916
 C   -0.2807936215    2.7360285816    1.5897092230
 C   -0.0495167145    2.0566330097    0.3175927295
 C    1.4202480754    2.0635288176   -0.1020382409
 C    2.3569515610    1.3332975966    0.8564656744
 C    2.0873203379   -0.1054310636    0.9170108636
 N    1.8557483650   -1.2371455540    0.9503228112
 C    1.7347450439    2.0165987383   -1.5747620541
 C    1.9591341359    3.2895884792   -0.7919406735
 H   -0.5989783146    3.7844519319    3.5708935075
 H   -0.4053911777    1.0200216894    0.3857721452
 H   -0.6473329599    2.5344856796   -0.4674631447
 H    3.3985044134    1.4765253554    0.5506995934
 H    2.2555801151    1.7502908351    1.8652744376
 H    2.6026619919    1.4498168214   -1.8943928934
 H    0.9048029997    1.9811557819   -2.2721442647
 H    1.2778837030    4.1184833313   -0.9502735279
 H    2.9801966696    3.5912321525   -0.5843275180