20

 O   -3.7906689293    0.8164082875   -0.0706075562
 C   -3.4292528567   -0.5108637639   -0.4117983872
 C   -2.2006546047   -0.8637746441    0.4210699465
 C   -1.4950073909   -2.1734232621    0.0900281389
 C   -0.4607005576   -2.5886040206    1.1304187979
 C    0.7009925482   -1.6172845608    1.1964492494
 O    1.1471308948   -1.1453938675    2.2107975081
 C   -2.1594157120   -3.2379678888   -0.7092985875
 N   -1.0523711662   -2.4554482478   -1.2910205711
 H   -4.5958740742    1.0429593527   -0.5450219929
 H   -4.2471482054   -1.2145694603   -0.1951615385
 H   -3.2060832177   -0.5921355726   -1.4895553157
 H   -1.4854816697   -0.0361424216    0.3236704549
 H   -2.4976906525   -0.8778173901    1.4760281975
 H   -0.9016533003   -2.6854426530    2.1271109242
 H   -0.0455783523   -3.5610068244    0.8357307857
 H    1.1352614919   -1.3695887460    0.2021098437
 H   -1.9313691618   -4.2826960584   -0.5143947048
 H   -3.1648123034   -3.0645969133   -1.0805538895
 H   -1.4223119300   -1.7595152550   -1.9337295934