22

 C    0.2619354737    1.5098689437   -0.1374552777
 C   -0.0705844574    0.0302826935    0.0123889929
 C   -1.4605507432   -0.3059758960    0.6464375891
 C   -0.7653620588   -1.2339160553    1.6830952452
 C    0.6292828438   -0.7633214457    1.1708017398
 C    1.6029546599   -1.7552523904    0.5033232270
 N    1.3626374166   -1.7615721366   -0.9572955162
 C    0.0153832607   -2.2062654916   -1.3341616441
 C    0.3127623035   -0.7540337867   -1.2401326591
 H    1.3099238411    1.6539249904   -0.4244723043
 H   -0.3612990133    1.9794039965   -0.9078980100
 H    0.0923767412    2.0488156997    0.8004230399
 H   -1.9327318192    0.5667585588    1.1058048818
 H   -2.1873151267   -0.7741877096   -0.0212809224
 H   -0.9739169396   -0.9976428672    2.7293324417
 H   -0.9572006998   -2.3011997029    1.5416632030
 H    1.1451706927   -0.1298003931    1.8969814827
 H    2.6384229641   -1.4327913000    0.6566833089
 H    1.5168937926   -2.7722583256    0.9030293224
 H   -0.0500508541   -2.6817476882   -2.3095720264
 H   -0.6170864025   -2.6621195412   -0.5777916618
 H    0.4405089445   -0.1856455425   -2.1587959925