16

 O    0.0583892623   -0.0029862171   -0.2927356023
 C    0.0351962361    1.1634490045    0.0655203573
 C   -1.2479660764    1.8162142444    0.3807249177
 C   -1.5793234502    3.1208714586    0.3116372289
 C   -0.7948007705    4.2706689126   -0.1012766083
 C    0.5341390338    4.3744233169   -0.2632531324
 C    1.5662643813    3.3757890189    0.0674320809
 N    1.5244387155    2.7435542499    1.3947782750
 C    1.3418854424    1.8852215919    0.2188342648
 H   -2.0309972970    1.0964092396    0.6015935660
 H   -2.6232738005    3.3529746967    0.5135768949
 H   -1.3851229754    5.1542885052   -0.3304326378
 H    0.9212575970    5.3122652677   -0.6536250523
 H    2.5528433563    3.6226249643   -0.3192109069
 H    2.4664958800    2.6303607816    1.7596433050
 H    2.1702693152    1.2504589244   -0.0883589806