23

 C    0.5837195423    0.9681658694    0.6600539729
 C   -0.8554172060    1.0151135935    1.1388935022
 C   -1.1129490700    1.2570609959    2.6104236852
 C   -1.4390095642    2.3277273303    1.5991111020
 C   -1.7485953795    0.0121126575    0.4603925535
 O   -3.1558736521    0.2668546115    0.4238224438
 C   -2.4443125579    0.1956354170   -0.8305046908
 C   -2.3608685698    1.4874507044   -1.6139965517
 C   -2.7838552364   -1.0280722551   -1.6562944613
 H    1.2111484247    1.6524162696    1.2392461401
 H    1.0054957190   -0.0385132792    0.7677880627
 H    0.6643007230    1.2506855433   -0.3958265903
 H   -1.9464825146    0.7369623269    3.0704636735
 H   -0.2555875508    1.3990954427    3.2600134489
 H   -0.8045300156    3.2070222237    1.5550521657
 H   -2.4874629309    2.5060903705    1.3936378479
 H   -1.5025635230   -1.0216175007    0.7241783340
 H   -2.0690418554    2.3273199531   -0.9845044446
 H   -1.6326241706    1.3915384171   -2.4268717834
 H   -3.3324866565    1.7144446734   -2.0670813723
 H   -3.7392136864   -0.8876552611   -2.1741896613
 H   -2.0161682299   -1.2112549352   -2.4160378682
 H   -2.8669715893   -1.9145257283   -1.0227329285