21

 C   -0.0001486900    1.5151951208    0.0247961685
 C    1.3011446606    0.7491120179   -0.0254213220
 C   -0.0133954230    0.0079543873   -0.0070957058
 C   -0.3886013316   -0.7316025915    1.2654799882
 O   -0.0051676753   -2.0914020773    1.1962976645
 C   -0.7825298646   -2.8079488184    0.2497706230
 C   -0.8082749729   -2.1736655670   -1.1416117932
 C   -1.8627499164   -1.1443563388   -1.4789271088
 C   -0.4354015105   -0.7100813765   -1.2581395749
 H   -0.2662955681    2.0121793224    0.9530539951
 H   -0.3193594927    2.0449571164   -0.8667167891
 H    1.8656322343    0.7644156053   -0.9522368789
 H    1.9181678600    0.7222223209    0.8668444559
 H    0.1311483330   -0.2991401022    2.1259114518
 H   -1.4736437100   -0.6528264126    1.4590268462
 H   -0.3355874327   -3.8044092526    0.1986778661
 H   -1.8102034283   -2.9237757844    0.6345440122
 H   -0.4879196720   -2.8261545569   -1.9471134807
 H   -2.2541650290   -1.1156814372   -2.4900321198
 H   -2.5976532075   -0.9121431366   -0.7135710648
 H    0.1159342966   -0.4213168192   -2.1486381735