10

 C    0.0359025232    1.3948981258   -0.1083082552
 O    1.3667627417    1.8785448330    0.2106338913
 C    2.0104691507    0.7986111257    0.6883924330
 N    3.1809856951    0.5125673985    1.1440838687
 O    3.0585751129   -0.8586724280    1.4413955995
 N    1.7789111369   -1.3671152828    1.1453833619
 C    1.1707974631   -0.3270906086    0.6891697010
 O   -0.0481327788   -0.0183246547    0.2119474698
 H   -0.6936620086    1.9395085439    0.4965669028
 H   -0.1423434762    1.5271121973   -1.1785817228