19

 C   -0.5388205171    1.4475457483   -0.1387919505
 N   -0.1658417150    0.0483705064   -0.0708677939
 C   -0.1229035276   -0.8124517975   -1.1379430770
 C    0.2241599570   -2.0617316073   -0.6780293197
 C    0.3936592160   -1.9554221259    0.7266817755
 C    0.1476167473   -0.6436159110    1.0847591186
 C    0.1765906742    0.0322760540    2.3951052078
 C    1.0170474582   -0.4937354502    3.4955234183
 N    1.3956590611    0.7708277393    2.8425277196
 H    0.0914125159    2.0398205177    0.5288704648
 H   -0.3989959084    1.8061810265   -1.1604392704
 H   -1.5869340005    1.6028369289    0.1435743248
 H   -0.3400448627   -0.4581223845   -2.1336154427
 H    0.3462073340   -2.9473432230   -1.2822619359
 H    0.6542458132   -2.7496643455    1.4095141036
 H   -0.7325187064    0.5603297307    2.6789160816
 H    0.6769716845   -0.3958561351    4.5222849221
 H    1.6176655450   -1.3767171679    3.2987660077
 H    2.1415266912    0.5742486461    2.1772843157