12

 N   -0.0406643393    1.3284420430    0.0571607976
 C    0.0055742903   -0.0164864218    0.0104864737
 N   -1.1746220759   -0.6734390185    0.0185126769
 C   -1.0485313626   -1.9914076730   -0.0292604667
 N    0.0883162286   -2.6851600270   -0.0818468858
 C    1.1818924944   -1.9080896297   -0.0836185137
 O    2.3622385764   -2.5283121704   -0.1348255551
 N    1.2204287336   -0.5872573365   -0.0399512294
 H    0.8152050224    1.8535932380    0.0527452053
 H   -0.9314554025    1.7897595649    0.0953466029
 H   -1.9702966510   -2.5703662529   -0.0252213138
 H    2.1644469956   -3.4751331762   -0.1617512918