19

 C    0.0588584156    1.4611934830    0.1137444558
 C   -0.0309535802   -0.0211355182   -0.0475590615
 C    0.5556929415   -0.9528049651   -1.1444761474
 C    0.0227337706   -1.8595903529   -0.0003248952
 C    0.1986092943   -3.3239262409    0.2366807812
 O    0.6107586307   -0.8967627714    0.9741547811
 C   -1.2358873227   -0.9747511131    0.0376366277
 C   -2.5215894647   -0.9951804019    0.7037977727
 O   -2.3955214230   -1.0287849535   -0.7475493575
 H    1.0992384272    1.7953839313    0.0633986530
 H   -0.5044072914    1.9579211856   -0.6823790287
 H   -0.3582932200    1.7676190772    1.0778630398
 H    0.0457061388   -0.9925205455   -2.1105752069
 H    1.6439956401   -0.9231270835   -1.2264009187
 H    1.2568043588   -3.5989590524    0.2021953670
 H   -0.2015901265   -3.6043438575    1.2157840367
 H   -0.3333482561   -3.8928506672   -0.5321916917
 H   -2.8940627906   -1.9147586780    1.1516223455
 H   -2.9477206124   -0.0771236758    1.1044118672