23

 C   -0.0863811510    1.4691144107   -0.2256818427
 C    0.0264046229   -0.0373128925    0.0462410771
 C    0.8031105969   -0.2915541978    1.3466570802
 C   -1.3690313708   -0.6862102314    0.0553425904
 C   -1.3641577103   -2.2141251945    0.1291928950
 N   -2.7257164508   -2.7386075217    0.0731960781
 C   -3.2583793678   -3.0106890518   -1.2572945693
 C   -2.8667790434   -4.1256089041   -0.3509252112
 H    0.9017413524    1.9388475497   -0.2738320385
 H   -0.5997562436    1.6675456771   -1.1724255485
 H   -0.6522311664    1.9687148647    0.5698150857
 H    0.5986139421   -0.4840682387   -0.7805786411
 H    0.9743107018   -1.3571609579    1.5257761339
 H    1.7823523370    0.1979938598    1.3184433003
 H    0.2576958639    0.1082674369    2.2102298771
 H   -1.9551429627   -0.2945222812    0.8968236221
 H   -1.9050194547   -0.3884865703   -0.8553270499
 H   -0.7344156843   -2.6238526358   -0.6845342585
 H   -0.9234459827   -2.5533981510    1.0732936187
 H   -4.3047054653   -2.7634934285   -1.4128112900
 H   -2.6128054546   -2.8202423680   -2.1142036674
 H   -1.9619479404   -4.6757788968   -0.6065907616
 H   -3.6211931584   -4.7080351670    0.1705793802