20

 C    0.7809133682    1.4766565601   -0.0194645875
 C   -0.0126687025    0.1607809198    0.0406728287
 C    0.1729986799   -0.7706577602   -1.1860685009
 C    1.0852971759   -1.9123478096   -0.7305645801
 C    1.0994662371   -3.2040803152   -1.5048536407
 N    2.3262505554   -1.3842101234   -0.1486738893
 C    1.2218135234   -1.8496826015    0.7541724857
 C    0.4152139349   -0.6880798384    1.2543087734
 O    0.1021776512   -0.4815239297    2.4002251926
 H    1.8438909156    1.2780013210   -0.1739385919
 H    0.4198933801    2.1028562605   -0.8416838229
 H    0.6601171325    2.0345257175    0.9136651617
 H   -1.0699542135    0.4034873105    0.1866621235
 H   -0.7901937892   -1.1865195393   -1.5014252829
 H    0.6025188407   -0.2468671206   -2.0463437769
 H    1.4688649821   -3.0423788556   -2.5241802431
 H    1.7456595271   -3.9472177868   -1.0257507431
 H    0.0933262578   -3.6294930134   -1.5795234530
 H    3.0372026804   -2.1141822811   -0.1530368404
 H    1.3793895227   -2.7152296547    1.3873201372