18

 C    1.3429073817    0.1545714577    0.8411018388
 N    0.1025027280   -0.0141197017    0.0988852799
 C   -0.9986776342    0.7196592205    0.4436952573
 O   -1.0706421117    1.4801539003    1.3851583073
 C    0.1484835481   -0.8197512003   -1.0916842591
 C    0.2893230464   -2.3757711794   -1.0167674353
 C   -1.1586302309   -2.4976503263   -0.4960605443
 C   -1.1259813521   -1.4913344609   -1.6743281861
 O   -0.2282278167   -2.4133584895   -2.4018787620
 H    1.6764752874   -0.7980588195    1.2673889959
 H    2.1360640541    0.5392083801    0.1885020208
 H    1.1558768705    0.8668486133    1.6443906183
 H   -1.8460843723    0.5373118767   -0.2433028409
 H    0.7953104613   -0.3904928980   -1.8642498928
 H    1.1689342592   -2.9784424608   -0.7921291819
 H   -1.6465536555   -3.4453176963   -0.7233553058
 H   -1.3844282385   -2.1262670576    0.5042449498
 H   -1.9444888447   -1.0451667384   -2.2385707898