18

 O    0.2624099735    1.1525619819   -0.7184083424
 C    0.1515265176   -0.0920642463   -0.0738898219
 C    0.2053289860   -0.1341254924    1.4775975254
 N   -1.1324944046   -0.8052672548    1.5575103448
 C   -2.2353925813    0.1796384168    1.8056073202
 C   -2.3786416543    0.5017241668    0.2977566857
 C   -1.3104962634   -0.6011266929    0.0398381191
 C   -1.6931443968   -1.7209346784   -0.7851463398
 C   -2.0075548773   -2.6457699152   -1.4874240973
 H    1.1944887604    1.3442306557   -0.8587439164
 H    0.7957940234   -0.8451115779   -0.5419719071
 H    1.0044096842   -0.7420016458    1.9117829342
 H    0.2286401801    0.8646342747    1.9284481594
 H   -3.1076431786   -0.3172866844    2.2401847613
 H   -1.9473612572    1.0083436410    2.4604200617
 H   -3.3536814414    0.2901092360   -0.1415020984
 H   -2.0494181047    1.4940955045   -0.0116780930
 H   -2.2875785357   -3.4657647994   -2.1012813356