17

 O    0.1734063733    1.5545903163   -0.3917415877
 C   -0.0458748981    0.1783672773   -0.1348173008
 C   -1.5127083530   -0.2381911931   -0.3800790425
 N   -1.4991873272   -0.6982505126   -1.7675444958
 C   -2.6440730115   -0.9014497088   -2.5154733912
 N   -3.7931533320   -0.6661080395   -2.0235378713
 C   -0.2225164503   -1.0095001262   -2.2388731002
 O    0.0256741207   -1.4267960539   -3.3453132632
 C    0.7435393369   -0.7306378436   -1.0926181081
 H   -0.0881485094    1.7444279505   -1.3001210187
 H    0.2368315751    0.0350452199    0.9093372543
 H   -1.8363952797   -1.0446185075    0.2887074321
 H   -2.2006119888    0.5999038292   -0.2563432394
 H   -2.4104190660   -1.2671144153   -3.5183410056
 H   -4.5164397583   -0.8641080992   -2.7128542175
 H    1.6694490091   -0.2744411275   -1.4458365003
 H    0.9969998792   -1.6888202462   -0.6236643343