15

 C   -0.5714100851    1.3231495548    0.0163748262
 N   -0.0802262676   -0.0563355540    0.0335973445
 C    0.1505110465   -0.6553040794   -1.1907290724
 N   -0.0514603724   -0.0450710581   -2.2796188139
 O    0.6154586916   -1.9599798854   -1.1972276481
 N    0.8566941643   -2.6833790847   -0.0355739552
 C    0.6285977084   -2.0870911870    1.0686453303
 C    0.1369381902   -0.7135988002    1.2334729278
 N   -0.0818405124   -0.1441568531    2.3569625081
 H    0.1470974654    1.9621527114   -0.5011571527
 H   -1.5186668714    1.3686447616   -0.5249355808
 H   -0.6988698530    1.6395286210    1.0485286573
 H    0.1732288661   -0.6442890714   -3.0707473068
 H    0.8257123274   -2.6756383234    1.9596057304
 H    0.1322806720   -0.7757678820    3.1257982353