22

 C   -0.0588155507    1.5183236959   -0.2170667644
 C    0.1384101190    0.0402701949   -0.0746972088
 N   -0.8647152760   -0.8039622116    0.6295680648
 C    0.5527632554   -0.7996367879    1.0830186018
 C    1.2791614877   -1.7898280363    0.1732261096
 C    0.8380553242   -0.9301705856   -1.0560433792
 C    0.0404579101   -1.4542166163   -2.2741899614
 C    0.8461843355   -0.4817246445   -3.1801006427
 C    1.8874809573   -0.3427505508   -2.0360280904
 H    0.8644129353    2.0214001608   -0.5219334840
 H   -0.8276749342    1.7493266953   -0.9645236491
 H   -0.3777466051    1.9602307062    0.7337302610
 H   -1.3776441303   -0.1840421417    1.2579250786
 H    0.8031466805   -0.5125758172    2.0979869827
 H    2.3653394458   -1.7823414376    0.3027049895
 H    0.9102152024   -2.8188300257    0.2101067482
 H    0.2755891920   -2.5012325680   -2.4899388273
 H   -1.0453690055   -1.3453679536   -2.2284464787
 H    1.2046216106   -0.8621232559   -4.1394417174
 H    0.3078490421    0.4531386696   -3.3604690747
 H    2.2898812761    0.6515018018   -1.8213859948
 H    2.7290073377   -1.0307839517   -2.1668187533