17

 C   -0.0823378470    1.6783542517   -0.0224685190
 C   -0.0110889730    0.1553049630   -0.0301416999
 N    1.1364666883   -0.4356457529   -0.7746322761
 C    1.8180095094   -0.7809578357    0.3895224728
 N    2.9958074482   -1.0849606468    0.7319584804
 C    0.6041874264   -0.4907547349    1.2675775556
 O    0.8554169120    0.3638539669    2.3465228209
 C   -1.3260547684   -0.4447689685   -0.4953376940
 O   -2.2303748082   -0.7388179900    0.2402625164
 H    0.8598634110    2.0977779008    0.3373858041
 H   -0.2870622951    2.0672505536   -1.0261556129
 H   -0.8802472532    2.0105809294    0.6467091085
 H    1.5685652516   -0.0365949375   -1.5986216200
 H    3.6478519312   -1.0912799323   -0.0537055790
 H    0.0390571186   -1.3739955163    1.5843065699
 H    1.7976078793    0.2865786415    2.5435393688
 H   -1.3914920811   -0.5975361620   -1.5981609364