18

 C   -0.0056433740    1.5212093629   -0.0392548171
 N    1.4854844088    1.3328616723    0.0476785680
 C    1.2356145465    0.0362839132    0.7940061451
 C   -0.0830333464    0.0083913118    0.0046511580
 O   -1.2112869546   -0.7968036573   -0.2699299462
 C   -0.0947288380   -0.7950369150   -1.2070338800
 C    0.0868714867   -0.0641788882   -2.4852906046
 C    1.1383455994    0.7673185521   -2.5096212121
 C    2.0414024663    1.1721070789   -1.3300006319
 H   -0.3728447033    1.9923428577    0.8781029445
 H   -0.3736256705    2.0588295012   -0.9121363697
 H    1.9600731028   -0.7628066513    0.6192829579
 H    1.1615392912    0.2568613000    1.8628402833
 H    0.4333191160   -1.7507618529   -1.1655599963
 H   -0.4947777963   -0.2784520394   -3.3770842415
 H    1.4126424605    1.2422222158   -3.4503231188
 H    2.4689603852    2.1473617642   -1.5915000498
 H    2.8955673895    0.4846610539   -1.2685802989