23

 C    0.0201036014    1.5166449564   -0.0721824399
 C    0.1903767156    0.0068535559   -0.1031176626
 O    0.6095230911   -0.4214600207    1.1769489221
 C    0.7513835347   -1.8225577459    1.3054171520
 C    2.0650784844   -2.3556484691    0.6670133364
 C    2.8541784364   -2.9167295054    1.8684462099
 O    2.3225945347   -2.2727418186    3.0118140525
 C    0.9172444523   -2.1928966847    2.8000977445
 C    0.3052851110   -1.2338796124    3.8034458148
 H    0.9660629741    2.0036155421    0.1811126403
 H   -0.3094598315    1.8838577337   -1.0487404032
 H   -0.7230473373    1.8033968298    0.6772032408
 H   -0.7596378960   -0.4863721232   -0.3719125570
 H    0.9271276257   -0.2787969241   -0.8715985179
 H   -0.1379577453   -2.3148587874    0.8843814273
 H    1.8934372491   -3.1094988211   -0.1049962866
 H    2.5950177218   -1.5153496737    0.2116579399
 H    2.7194564868   -4.0090038671    1.9441232998
 H    3.9260367199   -2.7075466924    1.8276837978
 H    0.4807994032   -3.2001791391    2.9322571599
 H    0.7187860527   -0.2332558339    3.6721343481
 H   -0.7788721688   -1.1805037662    3.6682955943
 H    0.5126749239   -1.5785963727    4.8199795368