19

 C    0.0290282924    1.3815781935   -0.0828382745
 O   -0.1223306347   -0.0083072621    0.0863845298
 C    0.6463937625   -0.5511133650    1.1498688150
 C    0.1383293463   -1.9753158304    1.4581997677
 C    1.3946681324   -2.8175690728    1.7710585513
 C    2.5225471746   -1.9973571396    1.1613925845
 C    2.1078269771   -0.7665688936    0.8272081622
 C    3.8340042446   -2.5140135191    1.0278305645
 C    4.9329267587   -2.9996374888    0.9322374654
 H    1.0514296812    1.6628234970   -0.3769075687
 H   -0.6551055912    1.6862767260   -0.8787574653
 H   -0.2267543259    1.9334767091    0.8357610454
 H    0.5473640596    0.1150148082    2.0263304955
 H   -0.6020878090   -1.9929698322    2.2605563511
 H   -0.3464360367   -2.3391347060    0.5477916071
 H    1.5549990121   -2.9304774361    2.8505925066
 H    1.3512035204   -3.8290861026    1.3557817180
 H    2.7432583472    0.0033793929    0.4069816141
 H    5.9068959584   -3.4124128282    0.8414456002