15

 N   -0.0527795242    1.4784866209    0.1034280482
 C   -0.0445939654    0.0685810145   -0.0497084729
 C    0.6019166288   -0.7936223708   -1.1526754750
 N   -0.4899657843   -1.8192559209   -1.0076224477
 C   -1.1799290909   -0.9411385015   -0.0519265264
 C   -0.3109552185   -0.7938552293    1.1808286776
 C    0.5900642212   -1.8176936113    1.6367064571
 N    1.3303374352   -2.6218365721    2.0151666854
 H    0.8181006626    1.8152996688    0.5039182168
 H   -0.1867821317    1.9481117112   -0.7865401965
 H    0.5734970050   -0.2793852457   -2.1192982842
 H    1.6079161401   -1.1858807794   -0.9739553122
 H   -1.0199869957   -1.9052438530   -1.8680985247
 H   -2.2573267480   -0.8380428202   -0.0037781048
 H   -0.7801701744   -0.2166512210    1.9714802394