18

 N   -0.0935242705    1.2727949924   -0.5522535909
 C   -0.0935142874    0.1140525326   -0.0543206825
 O   -1.0720809840   -0.7564794180   -0.3737844382
 C   -0.9312938798   -2.0911168012    0.1171396064
 C   -2.3026429489   -2.7143307944    0.1185258343
 C   -2.8448079536   -3.4091964842   -1.0821401659
 C   -2.5076146174   -4.2306508056    0.1567137185
 C   -1.3671466662   -5.1746646827    0.0985986954
 O   -1.3019822655   -6.1990098581    0.7316763178
 H    0.6943894774    1.8063869022   -0.1910740949
 H    0.6406388438   -0.2920970816    0.6562590356
 H   -0.2374517980   -2.6445519279   -0.5274236525
 H   -0.5115931252   -2.0763633919    1.1323132781
 H   -3.0160246908   -2.1613011231    0.7221712422
 H   -3.8917635522   -3.2952825170   -1.3357433189
 H   -2.1841734949   -3.5236241498   -1.9364854155
 H   -3.3270592554   -4.5851768925    0.7721170619
 H   -0.5520123014   -4.8855114992   -0.6048207208