21

 C    0.0488706360    1.5195595691    0.0275331424
 C   -0.0958175136   -0.0035688100   -0.0460303898
 C    0.6586413803   -0.5969974476   -1.2267109752
 O    2.0863083285   -0.3574895550   -1.1432641618
 C    2.6201401585   -1.6858541508   -1.2777455767
 C    1.7614189607   -2.5246982045   -0.3009093604
 C    0.6708131443   -2.1333632323   -1.3561050108
 O   -0.6008777556   -2.6829293756   -1.4364740503
 C    1.7942668272   -2.2965733398   -2.4358682101
 H    1.1018544918    1.8007353052    0.1176400355
 H   -0.3494840362    1.9990097193   -0.8737244447
 H   -0.4904879168    1.9264880686    0.8880483990
 H    0.2600464022   -0.4542724268    0.8867295952
 H   -1.1507292161   -0.2840348622   -0.1521619707
 H    0.2756512297   -0.1484633669   -2.1550169388
 H    3.7069706244   -1.6587867884   -1.2575843431
 H    2.0013891211   -3.5904261503   -0.3279456914
 H    1.6662660966   -2.1702417722    0.7262170600
 H   -0.5198274277   -3.6383515610   -1.5168259204
 H    1.7144546548   -1.7187616003   -3.3594335119
 H    2.0426324699   -3.3407620185   -2.6403387658