18

 N    0.4313023377    0.6393054821   -0.8600173740
 C   -0.0490083974    0.1390483656    0.3064724810
 O    0.4520134869    0.3247174910    1.4014606013
 C   -1.2802567513   -0.7270110256    0.1428992685
 C   -2.3765213063   -0.6550973680    1.2298336690
 C   -2.4243923029   -2.2137723146    1.2853508670
 C   -1.2818667749   -2.2893153666    0.2380654284
 C   -1.7418374785   -2.2309419976   -1.2259312850
 O   -1.8031727513   -0.7796386732   -1.2084055934
 H    1.2137409311    1.2713445849   -0.8363682046
 H   -0.0974746128    0.5019103379   -1.7055271736
 H   -1.9973342800   -0.2004183097    2.1461335337
 H   -3.2842782898   -0.1424790841    0.9055521700
 H   -2.1496581980   -2.6218212949    2.2596576405
 H   -3.3629310875   -2.6773125015    0.9694602920
 H   -0.3986247482   -2.8795539600    0.4750083535
 H   -1.0044779032   -2.5844349081   -1.9569701765
 H   -2.7167775635   -2.6788683177   -1.4518586379