18

 C   -0.0863918803    1.4990197332   -0.0646919312
 C    0.0848012018   -0.0045715291    0.0579053172
 O    0.9721417772   -0.5158619876   -0.9827569564
 C    1.9423826751   -1.2399439037   -0.2126698121
 C    1.0847823689   -2.0116510014    0.8299700020
 C    0.8133666092   -0.5480208954    1.3012887800
 C    2.3039410806   -0.2584338906    0.9361344771
 C    2.9313859720   -1.8740949992   -1.0615771529
 N    3.7438931765   -2.3984323893   -1.6934343200
 H    0.8521924565    2.0344294892    0.0992627670
 H   -0.4493284261    1.7517921053   -1.0649162229
 H   -0.8225847920    1.8543347059    0.6641626047
 H   -0.8917076965   -0.4920737363   -0.0596243832
 H    0.2530499862   -2.5965865297    0.4326336111
 H    1.6816260417   -2.5918631928    1.5337305524
 H    0.3930011076   -0.3164930827    2.2779502773
 H    3.0044056013   -0.6820450097    1.6558599298
 H    2.6017148201    0.7478419239    0.6405481001