20

 C    0.1215927087    1.5895292964    0.1126515678
 C   -0.0559634200    0.0820642175   -0.0297994847
 C    0.5331491992   -0.4432363052   -1.3578580282
 C    0.1087134613   -1.8378872414   -1.7549781548
 C    0.4060181203   -2.9665384411   -1.1104791422
 C    1.2142966819   -3.0366590539    0.1639465942
 N    0.3556512408   -2.8337934384    1.3417732841
 C    0.1055916524   -1.6445872643    1.6748819891
 O    0.6169739241   -0.5073579622    1.1064751926
 H    1.1830439163    1.8531285744    0.0669803457
 H   -0.4017223280    2.1181477105   -0.6894524241
 H   -0.2735952110    1.9302617839    1.0727563928
 H   -1.1214658782   -0.1738872770    0.0235630588
 H    0.2402225936    0.2554780785   -2.1484484888
 H    1.6249846359   -0.3724008651   -1.2728165337
 H   -0.5152025062   -1.9076024575   -2.6433488973
 H    0.0116087622   -3.9066213040   -1.4873551223
 H    1.6714295984   -4.0248040437    0.2617642350
 H    2.0162588209   -2.2875161836    0.1385444922
 H   -0.5259693427   -1.4499282140    2.5445591838