18

 C   -0.0196198242    1.5379591035    0.0540701428
 C   -0.0523918567    0.0430151140   -0.0266168341
 C    0.1049467525   -0.7789892522   -1.1278801514
 N    0.4696893284   -0.7492446586   -2.4788662409
 C    0.2152823620   -2.1225297860   -2.9875136604
 C    0.3274072319   -3.0199786511   -1.7268322026
 N   -0.0308685728   -2.0559957757   -0.7085793179
 N   -0.2136307328   -2.1706755710    0.6266586996
 C   -0.2531583032   -0.8983240334    1.0226420469
 H    0.8215335272    1.9584787063   -0.5091037453
 H   -0.9343481026    2.0047258035   -0.3339456792
 H    0.0893887831    1.8633402189    1.0927990432
 H    0.0252000089   -0.0247043286   -3.0272102960
 H   -0.7932441537   -2.2105342936   -3.4134910938
 H    0.9419676335   -2.3934374995   -3.7564274863
 H   -0.3563903253   -3.8710522382   -1.7496882384
 H    1.3489041072   -3.3908216683   -1.5751940758
 H   -0.4271922635   -0.6725522102    2.0664742795