18

 C   -0.1986412999    1.5234278155   -0.0062959980
 C    0.0272354188    0.0200556137    0.0773765067
 N    0.8747754544   -0.4401457138   -1.1331802223
 H    0.3407548793   -0.4333659961   -2.0053203581
 H    1.6528429599    0.2161224048   -1.2192140401
 C    1.4142419373   -1.7870723266   -0.7493634117
 C    1.6089843262   -1.6501028182    0.8029174991
 O    2.3329615066   -2.4386331720    1.3838347640
 C    0.8356340492   -0.5257367453    1.2128289611
 C    0.7439398508   -0.0030261990    2.5453447352
 O    1.3425600906   -0.3867288748    3.5363016832
 H    0.7450657984    2.0682550469    0.1017357318
 H   -0.6839458038    1.8102306997   -0.9473671138
 H   -0.8525429852    1.8367041297    0.8102294664
 H   -0.9373549564   -0.4909854357   -0.1038150104
 H    0.6602614922   -2.5369629141   -1.0058571245
 H    2.3446371042   -1.9971252505   -1.2763205760
 H    0.0303691073    0.8584725659    2.6402330773