18

 C   -0.1840906356    1.4237329360    0.0967381054
 C    0.0827479286   -0.0791008950   -0.0693473528
 C    0.8654872338   -0.3651763105   -1.3588348873
 C    0.8022586789   -0.6436109835    1.1432568961
 C    0.0375348084   -1.0308906583    2.3828409044
 C    0.6633136369   -2.0975292357    1.5149721091
 H    0.7578045391    1.9800211649    0.1746615919
 H   -0.7359503990    1.8265949920   -0.7591775944
 H   -0.7650634595    1.6255863692    1.0020523161
 H   -0.8887454525   -0.5899780139   -0.1419968391
 H    1.8466108986    0.1242501746   -1.3353098839
 H    1.0327675538   -1.4386569667   -1.4912167139
 H    0.3313041249    0.0075648199   -2.2392617439
 H    1.7845460099   -0.2055879642    1.3131939485
 H    0.4790812087   -0.8302673871    3.3528515401
 H   -1.0435337090   -0.9339377219    2.3606135247
 H   -0.0006843864   -2.7114744713    0.9143215298
 H    1.5322916703   -2.6254659885    1.8921899792