17

 C    0.0396170863    1.4949113396    0.0522755109
 C   -0.0065753731    0.0068614549   -0.1144890524
 N    0.0683081286   -0.5615166687   -1.2406528784
 C    0.0495579773   -2.0166606583   -1.3154297624
 C    0.4277610968   -2.6898133216    0.0048596784
 C   -0.3407838316   -2.0053370471    1.1410113483
 O   -0.1322866996   -0.5937618319    1.1234646611
 C   -1.7866573693   -2.2982841726    1.0766313361
 N   -2.9134593749   -2.5476563857    1.0256982533
 H    0.8539927257    1.7755465820    0.7277048685
 H    0.1861124264    1.9638499668   -0.9195367828
 H   -0.8919835689    1.8539717619    0.5009109872
 H   -0.9503875765   -2.3372338918   -1.6355108340
 H    0.7386532129   -2.3255549711   -2.1080142448
 H    0.2121114830   -3.7616102467   -0.0041877774
 H    1.4956793289   -2.5594198222    0.2072626121
 H    0.0208863279   -2.3412209174    2.1174388064