20

 C   -0.3039612341    1.4452848034    0.1545810078
 N    0.0339799083    0.0238911923    0.1975500779
 C    1.3158655828   -0.4818770120   -0.2766284901
 C    2.4920937709    0.4699093424   -0.3838411569
 O    2.5571169857    1.1734759897    0.8530487879
 C    1.9308914236    0.3988795453    1.8733400658
 C    0.9638626274   -0.5454883750    1.1746910686
 C    0.4738561691   -1.7736276688    1.8991450938
 O   -0.4213043440   -1.4360903703    2.9498459231
 H    0.5221271848    2.1283391574    0.3837144812
 H   -0.6845357381    1.6763180068   -0.8454594343
 H   -1.1165988767    1.6295261357    0.8645925317
 H    1.2842938063   -1.3425599673   -0.9406031042
 H    3.4116780322   -0.1081652558   -0.5706499958
 H    2.3939467247    1.2159740783   -1.1808861554
 H    2.6697489565   -0.1901254741    2.4396330023
 H    1.4497572068    1.0943862976    2.5688318302
 H    0.0051958655   -2.4548737718    1.1754373458
 H    1.3091855667   -2.3011493442    2.3727774770
 H   -1.1797512384   -1.0098574193    2.5351576436