18

 O   -0.0129315272    1.4763177288   -0.0081992185
 C    0.0104429901    0.0475085083    0.0069256251
 C    0.6359950185   -0.5614882220    1.2991145485
 N   -0.4835339813   -0.9429507224    2.1809162977
 C   -1.3415168098    0.2750229109    2.4710253165
 C   -2.2505456868   -0.1284488199    1.3211711531
 O   -3.6091123718    0.0914978984    1.2352490857
 C   -1.4090057810   -0.4793925572    0.0869360985
 C   -1.5365925304   -1.4438116730    1.2431568316
 H    0.8915235037    1.7853104794   -0.1218386781
 H    0.5175985497   -0.3230338163   -0.8962715062
 H    1.2026365043   -1.4668000460    1.0530526092
 H    1.3074193092    0.1394098205    1.8047366642
 H   -1.8298593907    0.1629844347    3.4436069000
 H   -0.8229521500    1.2352813714    2.4085313775
 H   -3.7481328824    0.9494514007    0.8186273845
 H   -1.9891912965   -0.6568100176   -0.8111219811
 H   -1.8624872375   -2.4754660086    1.2144319516