16

 C    0.0549787455    1.5178927149   -0.0671799730
 C    0.0467759943    0.0634636033   -0.0362362283
 C    0.0474446218   -1.1398319066   -0.0178490970
 C    0.0260687892   -2.5913320647    0.0267397609
 C    0.0824820214   -3.2490697555    1.4535892584
 O   -1.2034061895   -3.8573984757    1.2839665336
 C   -1.3904148507   -3.2724559567   -0.0103403140
 C    0.9774633018   -3.1726470128   -0.9211458388
 N    1.7220314629   -3.6535634354   -1.6625058508
 H    0.9072728790    1.8921043527   -0.6439713583
 H   -0.8586119399    1.9083372089   -0.5278686085
 H    0.1249454012    1.9344648508    0.9432100138
 H    0.8819092014   -3.9840723265    1.5895763058
 H    0.0999647900   -2.5132897738    2.2638149375
 H   -2.2123381579   -2.5499637780   -0.0344079904
 H   -1.5194400705   -4.0222132348   -0.7971189909