16

 O    0.0668531572    1.4399523936   -0.0221785568
 C    0.0698584786    0.0236905671    0.0414749330
 C   -1.3241905124   -0.5423319081   -0.0145388003
 N   -2.2412242425   -0.3134128497    1.1766717995
 C   -3.1151538387   -1.3783346935    0.5562916599
 C   -3.4373761399   -0.7348106264   -0.7719976827
 C   -2.2694128527   -0.1858139863   -1.1428440520
 C   -1.7390123748   -2.0753411556    0.1636513247
 O   -1.2178170753   -3.1379070537    0.2247918766
 H   -0.5886933882    1.7517020718    0.6121715154
 H    0.6448661404   -0.3290338321   -0.8209582005
 H    0.5845014941   -0.3422640012    0.9445011846
 H   -1.7916939015   -0.7100219134    2.0091181141
 H   -3.8903929752   -1.8390860572    1.1633468930
 H   -4.3746446145   -0.8051110730   -1.3031729011
 H   -1.9905060545    0.3241319177   -2.0526603175