19

 C    0.1139974818    1.5367660279    0.0539027441
 C    0.1033806043    0.0042128283    0.0657375189
 C    0.6691217284   -0.5752793667    1.3265811100
 C    0.3004185275   -0.3009359502    2.8115415514
 C    1.6102960060   -1.1341603769    2.7661134373
 C    0.9683678862   -2.0530609738    1.6901449341
 O    2.0886794063   -0.2501423197    1.6672074064
 C    2.5016183955   -1.4754094348    3.8331999548
 C    3.2293991413   -1.7773990003    4.7410269798
 H    1.1285733056    1.9145405670    0.2059575084
 H   -0.2578787067    1.9210633622   -0.9000184840
 H   -0.5183448084    1.9439023886    0.8494231077
 H   -0.9188738627   -0.3754737917   -0.0568763070
 H    0.6859383661   -0.3847314260   -0.7783516460
 H    0.4311605318    0.7281255491    3.1465458375
 H   -0.5920990963   -0.7800147764    3.2218092866
 H    0.1366404238   -2.6916229647    1.9979377490
 H    1.6832800324   -2.5569452564    1.0387574158
 H    3.8777398472   -2.0406011354    5.5401205154