18

 C   -0.0203096900    1.5168411238   -0.0815788829
 C   -0.0562623076   -0.0048780577    0.0050656244
 N   -1.2730975849   -0.4942958472    0.7405968648
 C   -0.4176906133   -0.4582551644    2.0168749348
 C    0.7385689591   -0.7651038681    1.0248503167
 O    1.9882750055   -0.2933291898    0.3500763039
 C    1.1618973367   -0.6293997041   -0.8749095864
 C    0.9937120197   -2.1229473271   -0.7428821325
 C    0.6866913320   -2.2242052749    0.5500789361
 H    0.9624463432    1.8842808004   -0.3796197154
 H   -0.7496237524    1.8360390937   -0.8379590033
 H   -0.2945539561    2.0048364416    0.8593864302
 H   -2.0517656027    0.1623087868    0.7399456679
 H   -0.3852374047    0.5226935369    2.4983608957
 H   -0.6693144777   -1.2351045771    2.7437356680
 H    1.5551589391   -0.1666278975   -1.7808109493
 H    1.0779666290   -2.8620271344   -1.5247818029
 H    0.4385419650   -3.0766340008    1.1653244703