19

 C   -0.0738315049    1.6312724524   -0.0998022843
 C   -0.0078818020    0.1110041042   -0.0637413426
 C    1.0675413333   -0.6108281903   -0.9564203708
 C    1.6680773223   -1.2349763478    0.3130374374
 C    2.3503318095   -2.5495476316    0.4982057771
 O    2.0330122988   -0.1647413503    1.1702657480
 C    0.6500430879   -0.5348051806    1.1719914723
 C    0.0378403373   -1.0401896626    2.4159000920
 O    0.6519353204   -1.4623280618    3.3659762339
 H    0.9051533024    2.0590659945    0.1332956001
 H   -0.3759538475    1.9859649736   -1.0905959392
 H   -0.7969259186    2.0155817393    0.6276524063
 H   -0.9950827857   -0.3302660245   -0.2373061539
 H    0.6323462032   -1.3428808451   -1.6404596682
 H    1.7543433113    0.0389555268   -1.5052942227
 H    3.3644251829   -2.5130487286    0.0840325796
 H    2.4191516511   -2.7842689988    1.5631514440
 H    1.8052445203   -3.3477967397   -0.0145633646
 H   -1.0759495420   -1.0405874790    2.3947832656