19

 C   -0.0099701653    1.6660744222    0.0103268051
 C    1.4892918983    1.3186765818    0.0255208418
 C    1.1216050054    0.1036963615    0.9518348350
 C   -0.0815085633    0.0989004140   -0.0241181258
 O   -1.2605120881   -0.6299314179   -0.0260887320
 C   -1.6356234357   -0.8164840125   -1.4184940410
 C   -0.5202168789   -0.1946132018   -2.3164245285
 C    0.6457499418   -0.2152637469   -1.3288658361
 O    1.6932676521    0.7588520795   -1.3003034343
 H   -0.3820198683    2.0691159787    0.9537613343
 H   -0.3758523188    2.2433990660   -0.8404182885
 H    2.2817343508    2.0246320858    0.2604656033
 H    1.7854893703   -0.7636757518    0.9533403371
 H    0.8883381554    0.4272612557    1.9672534648
 H   -1.7410578630   -1.8931264093   -1.5913146331
 H   -2.6094070876   -0.3469103891   -1.5899039771
 H   -0.3572694719   -0.7830181939   -3.2215503681
 H   -0.7707371634    0.8270173150   -2.6112560810
 H    1.0859014900   -1.2212971771   -1.3057582558