21

 C   -1.1076826202    0.9886889879   -0.0591392749
 C    0.0036717434   -0.0415490769    0.0611354355
 C    1.2506990214    0.0984002337   -0.8665747854
 C    2.1256321269   -0.2375057159    0.3505062578
 C    3.0891455130   -1.3607589491    0.4522273251
 C    3.5921144663    0.0769670750    0.6023482195
 C    4.3998815720    0.6484176899   -0.4929697532
 O    5.2718692324    1.4720230005   -0.3562225572
 C    0.9521642827    0.0295406849    1.2991899947
 H   -0.7107296893    2.0065948856    0.0277449009
 H   -1.6186612362    0.9113762178   -1.0252703916
 H   -1.8595818029    0.8556409812    0.7266331685
 H   -0.4099771657   -1.0513606762   -0.0278286483
 H    1.3130349296   -0.5690615601   -1.7301268793
 H    1.3846914061    1.1298867062   -1.2099752034
 H    3.0991434578   -1.9729391382    1.3479659910
 H    3.3672908252   -1.8861283186   -0.4575243123
 H    3.8648880325    0.4197653082    1.5954007602
 H    4.1390708630    0.2510496010   -1.5034221123
 H    0.9853418535    1.0373708745    1.7272495924
 H    0.7869662289   -0.6898346516    2.1058796724