21

 C   -0.0065271813    1.5092229693    0.1177434877
 C   -0.0607927724    0.0236354014   -0.0028167039
 C   -0.0710948549   -0.7738318678   -1.0794207220
 C   -0.0319821138   -0.4566457387   -2.5362366240
 C    0.0065137212   -2.1933992906   -0.5168708296
 C    1.4728973053   -2.4107401034   -0.0173604062
 C    1.4852940628   -1.4838159845    1.2336655401
 C    0.0233417206   -0.9289372128    1.1901378306
 O   -0.6979090770   -2.0747664143    0.7241157421
 H    0.9095947334    1.8352102081    0.6285799013
 H   -0.0332146021    2.0014349769   -0.8584224102
 H   -0.8460970518    1.8928341457    0.7115458429
 H   -0.0498863988    0.6208249524   -2.7223056324
 H    0.8741019699   -0.8597359380   -3.0084930365
 H   -0.8830032553   -0.9041305451   -3.0655386316
 H   -0.4128895817   -2.9952588036   -1.1256309360
 H    1.6288738344   -3.4560445284    0.2596575746
 H    2.2174585386   -2.1405903310   -0.7702124694
 H    1.6477571553   -2.0547322839    2.1509349228
 H    2.2367643967   -0.6919498175    1.1848334469
 H   -0.3806404293   -0.5764272844    2.1398744727