17

 C    0.0536296448   -1.1924374149   -0.0370839397
 C   -0.0275983886    0.0110039956   -0.0136144943
 C   -0.0670527738    1.4163153113    0.0145100271
 C   -1.1065520603    2.2717497905    0.0177972139
 C   -0.4617776182    3.6389731871    0.0544723559
 C    0.8133027629    3.5746834697   -0.8715757159
 C    1.5684926421    4.5107987926    0.0999112640
 C    0.7876522409    3.5362702855    1.0114994261
 C    1.1485263271    2.3473810282    0.0500582840
 H    0.1083049866   -2.2522267448   -0.0579921691
 H   -2.1635117028    2.0489589002   -0.0011441088
 H   -1.0781479578    4.5382516899    0.0644204698
 H    0.8170937022    3.5842340681   -1.9646234981
 H    2.6589123595    4.4303536958    0.1131231828
 H    1.2535481205    5.5580495172    0.1169846731
 H    0.7616787845    3.5012428572    2.1037254345
 H    2.1510393303    1.9199230008    0.0549935445