21

 C   -0.0315475200    1.6275973780   -0.0853944705
 C   -0.0458423802    0.0985070284   -0.0067644776
 C    0.9206104110   -0.4415751245    1.0550966577
 C    0.8505897315   -1.9494700577    1.2772479958
 C    1.1717326995   -2.7951000721    0.0568593644
 C    1.4665212207   -2.4437437898    2.6080181460
 C    0.0205453505   -2.7544460613    2.9862456782
 O   -0.5700099145   -3.2035472988    3.9159647388
 O   -0.4979951779   -2.3178840722    1.7984376045
 H    0.9658244318    2.0048140508   -0.3383184588
 H   -0.7273274137    1.9907640460   -0.8476448018
 H   -0.3217189316    2.0760937086    0.8710724824
 H   -1.0568143971   -0.2529676527    0.2285291082
 H    0.2081185795   -0.3161748664   -0.9892840186
 H    1.9550745362   -0.1822311682    0.7916846555
 H    0.7112898946    0.0520210779    2.0126478743
 H    2.1831943030   -2.5759618477   -0.3007277001
 H    1.1143407356   -3.8595690119    0.3005098949
 H    0.4697553712   -2.5971891605   -0.7567118251
 H    2.1100458720   -3.3229430671    2.5431159659
 H    1.9425019281   -1.6850555288    3.2319119759