15

 O    0.0967434697    1.4116782834   -0.0755534130
 C   -0.0512467682    0.0482441418    0.0390253559
 C   -0.4152902415   -0.7440081091    1.2467259054
 C   -1.6039346589   -0.1689264502    2.0555716792
 O   -2.0209791428    1.0898280611    1.4853980078
 C   -2.4750147870   -0.1441377923    0.8870018490
 C   -1.3723973501   -0.7247561736   -0.0293005288
 C   -1.6212658724   -1.8240783719   -0.9562022427
 O   -2.7240795843   -2.2455496889   -1.2280334061
 H   -0.6026252667    1.8045389735    0.4666896507
 H    0.7106958185   -0.4538875548   -0.5559068796
 H    0.1534786637   -1.6013732207    1.5855833332
 H   -1.8086214034   -0.3342479446    3.1051726551
 H   -3.5391159981   -0.2945325357    0.7689319968
 H   -0.7032402185   -2.2622952480   -1.4104083828