19

 C    0.2394190119    1.5471672605   -0.1491848937
 C    0.0481958526    0.0678899058   -0.0194853051
 C   -1.0859963828   -0.6546878656   -0.0339196595
 C   -2.5211844794   -0.2364096063   -0.1423316994
 O   -2.7163365835    1.1023859898    0.2865937028
 C   -0.7607210724   -2.1164333654   -0.0013440143
 O    0.0119480362   -2.5658435298   -1.1422098122
 C    0.7013447303   -2.2404770189    0.0670339888
 C    1.2717438708   -0.8329012349    0.1037599340
 H    0.8199352039    1.7771482681   -1.0526120130
 H   -0.7105881024    2.0754001258   -0.1952022788
 H    0.8206456746    1.9378050627    0.6965617208
 H   -2.8578263356   -0.3693934058   -1.1857720442
 H   -3.1303208137   -0.9295944074    0.4640357499
 H   -3.6231405451    1.3480499172    0.0817880473
 H   -1.4557130315   -2.8517251273    0.3964795065
 H    1.2114599263   -3.0683112906    0.5522173291
 H    1.9872811865   -0.6611807779   -0.7101295090
 H    1.8107157833   -0.6469491600    1.0428908099