23

 C    1.4902083197    1.8824751159    1.8489037935
 C    1.1003249821    0.4255953922    1.7615715070
 N    1.6449428149   -0.4944900879    2.7700083950
 C    0.1791374830   -0.2848303628    2.7083147727
 C   -0.3797883780    0.4023049540    3.9399144752
 C   -0.6209854452   -1.4212200357    2.0962830544
 C   -2.0009053173   -1.7916834523    2.5264833244
 N   -1.7689618899   -1.2455183991    1.1962825545
 C   -2.2633247648    0.0926904243    0.9110881900
 H    1.5502701268    2.2234820568    2.8839665669
 H    2.4729578610    2.0393370926    1.3909729488
 H    0.7681007507    2.5111477320    1.3163487597
 H    1.0617879333    0.0470729062    0.7396397774
 H    1.8978332001   -1.3834255024    2.3445081699
 H    0.3539014535    1.0947233705    4.3549376671
 H   -1.2973015592    0.9600931271    3.7277103931
 H   -0.6092892527   -0.3375262095    4.7137988658
 H    0.0214007573   -2.2360486252    1.7581456913
 H   -2.3075269941   -2.8341270808    2.5726768812
 H   -2.4822812277   -1.1505252849    3.2629441727
 H   -2.2592337861    0.7812939550    1.7691967530
 H   -1.6608224104    0.5396186629    0.1139743420
 H   -3.2933157269    0.0118808412    0.5490770942