17

 C   -0.1203181305    1.5420932916   -0.1226750169
 C    0.0798402500    0.0282274305   -0.1698683963
 O    1.0636377578   -0.3384511828   -1.1320815187
 C    0.4098781079   -0.5428790898    1.2206410415
 C    0.5383418224   -2.0302777545    1.2467444775
 C    0.8721072638   -2.9756020002    0.3233596796
 N    0.8139105938   -4.1938267941    0.9574961898
 N    0.4837148494   -4.0595513132    2.1608532778
 O    0.2895390682   -2.6524265189    2.4006189923
 H    0.7819237822    2.0437892565    0.2493793483
 H   -0.3346553134    1.9214782721   -1.1247686865
 H   -0.9494376284    1.8140268635    0.5378288464
 H   -0.8394801809   -0.4476762156   -0.5296210054
 H    1.8819424781    0.1219592812   -0.9127963864
 H    1.3453821888   -0.0906638114    1.5818294126
 H   -0.3643533981   -0.2483871857    1.9371930531
 H    1.1412295990   -2.8658110590   -0.7108658087