19

 O   -0.1502841028    1.4863031032   -0.0066452033
 C   -0.0006605612    0.0788134450   -0.1074108682
 C   -1.3812642050   -0.5557103766    0.0241082361
 C   -1.3384480292   -2.0790386658   -0.1039933830
 C   -2.7601466478   -2.6340169606    0.0069282251
 C   -3.6114675969   -2.0437320809    1.1257968919
 O   -4.5966218573   -2.5909846590    1.5413831508
 O   -3.2880765674   -0.8185619126    1.6040141127
 C   -2.0089110721   -0.2041689904    1.3697582594
 H    0.7202473557    1.8914042494   -0.0559707214
 H    0.4386663587   -0.2106650097   -1.0750085097
 H    0.6625305230   -0.3107314119    0.6831850258
 H   -2.0146367716   -0.1441820669   -0.7733800752
 H   -0.8866421609   -2.3867002425   -1.0534280133
 H   -0.7083061757   -2.4933757782    0.6943720336
 H   -3.3127291036   -2.4221117937   -0.9180116838
 H   -2.7791026183   -3.7188423195    0.1315523827
 H   -1.3349317906   -0.5081465743    2.1834454107
 H   -2.1794943168    0.8689993247    1.4575145390