18

 N    0.0478974455    1.1395633971   -0.4816498033
 C    0.0732442546   -0.0173808639    0.2469402708
 O    0.9902097086   -0.3038690532    0.9905614584
 C   -1.1846583872   -0.8556474181    0.1305644161
 C   -1.6827418417   -1.4897078169   -1.1527236564
 C   -0.6920642312   -1.6217329918   -2.2960387424
 O    0.5167627323   -2.0774413909   -1.7057939227
 C    0.1943149207   -2.8964152856   -0.5804472803
 C   -1.1136679158   -2.3458582736   -0.0379181647
 H    0.8825198123    1.7037148550   -0.4968835189
 H   -0.6447487411    1.2892657627   -1.1940725743
 H   -1.9701122206   -0.5027799577    0.7943891153
 H   -2.7425330049   -1.4724960523   -1.3802969625
 H   -1.0810018799   -2.3406448741   -3.0363183904
 H   -0.4603673048   -0.6877690735   -2.8201234472
 H    0.0623197791   -3.9477251350   -0.8806551011
 H    1.0288905305   -2.8180590307    0.1193989319
 H   -1.7387361663   -2.9867617275    0.5719327318