16

 O    0.1107499728    0.0021475848   -0.3705864184
 C    0.0456369595    1.1900513477   -0.1825396868
 N   -1.0025708101    2.0534997781    0.0076537229
 C   -0.1912416390    3.2456255046    0.2741364492
 C    1.0649499469    2.3710255682   -0.0260668953
 N    2.0911746320    2.3475404962    0.9889335225
 C    1.9093434520    1.4707795918    2.1473994895
 C    2.9014696775    1.1320866428    1.0900210416
 H   -1.9987010382    1.8951273102    0.0440387824
 H   -0.3701304959    4.0790947506   -0.4110294424
 H   -0.2350956609    3.5954899167    1.3097153106
 H    1.5300079580    2.6192983486   -0.9848719983
 H    2.2351934860    1.8891105265    3.0950901424
 H    1.0187284493    0.8490931715    2.2006792947
 H    2.6493129104    0.3001888714    0.4382036745
 H    3.9621913095    1.2963089001    1.2575080510