25

 C    0.9078431254   -0.3230848565   -1.0787212383
 C    0.0039971372    0.0984633211    0.0884121803
 C   -0.1647312784    1.6245717978    0.1135592949
 C   -1.3787123900   -0.5799965536    0.0398711770
 C   -1.4039200325   -2.1193905143    0.1015934227
 C   -0.7723459995   -2.6717467978    1.3883734386
 C   -2.8567427188   -2.6241482441   -0.0497921661
 C   -2.9309533527   -4.1161568055   -0.2743004005
 O   -3.5777014232   -4.8911627046    0.3822074621
 H    1.8674218001    0.2025921734   -1.0372428545
 H    1.1223024904   -1.3960405855   -1.0719338830
 H    0.4405842709   -0.0823013543   -2.0415891330
 H    0.4998231750   -0.1924642033    1.0239492799
 H   -0.6499900284    1.9800227613   -0.8034914109
 H   -0.7801900719    1.9454205648    0.9606472925
 H    0.8039791965    2.1288457450    0.1920703685
 H   -1.9875480522   -0.1919926819    0.8687138373
 H   -1.8854648130   -0.2597218105   -0.8819350686
 H   -0.8355635720   -2.5088851069   -0.7547659582
 H    0.2873520363   -2.4134057392    1.4638617983
 H   -1.2797003435   -2.2692588108    2.2731028391
 H   -0.8491709066   -3.7628042415    1.4356281935
 H   -3.4645230306   -2.3683347174    0.8243381687
 H   -3.3100320978   -2.1458221063   -0.9305272947
 H   -2.3148787806   -4.4744319594   -1.1347408955