23

 C    0.7430955849   -1.1983047693   -1.8274129570
 C    0.1205867572   -0.5319151552   -0.5936043096
 C   -1.3198699734   -0.9327014418   -0.3727170381
 C   -2.4841363751   -0.6542017395   -1.3556331358
 C   -3.1516475012   -1.3787438866   -0.1813248669
 C   -1.9316502349   -2.3356575547    0.0390133114
 C   -1.9162139212   -2.0310648643    1.5558445043
 C   -0.6762794377   -2.2393601891    2.4135773216
 C   -2.2438448271   -0.6754915962    0.8834853049
 H    1.7760984897   -0.8682340717   -1.9738894621
 H    0.7506767440   -2.2886522961   -1.7251548837
 H    0.1829424453   -0.9543516058   -2.7358830762
 H    0.7270020496   -0.7595768815    0.2887851674
 H    0.1576545911    0.5598493413   -0.7120639280
 H   -2.7532480098    0.3975390085   -1.5069488185
 H   -2.4618622847   -1.1842613694   -2.3140384860
 H   -4.1981793961   -1.6513749395   -0.0358949014
 H   -1.7681644769   -3.2857387123   -0.4755719109
 H   -2.7885168459   -2.4563760494    2.0715705538
 H    0.2332499953   -1.8512959371    1.9501055945
 H   -0.7902030120   -1.7444921088    3.3849914312
 H   -0.5178157718   -3.3062636419    2.6091370191
 H   -2.4380301994    0.2956749404    1.3458378361