16

 C   -0.4529388380    1.4447663080   -0.4174198556
 O   -1.0204553739    0.1627263000   -0.7273261794
 C   -1.0120646155   -0.7243557300    0.2781556773
 O   -0.5663682124   -0.5042488896    1.3768280489
 C   -1.6093338340   -2.0505892455   -0.0922463660
 N   -2.6627737087   -2.1224091514   -1.0983733384
 C   -1.3861212725   -2.7715748503   -1.4038802582
 C   -0.6022923579   -2.1909993598   -2.5399767210
 O    0.2669678891   -2.8058383327   -3.1050058509
 H   -0.5364857981    2.0319309686   -1.3312781952
 H   -1.0057507841    1.9191193929    0.3967084813
 H    0.5931365213    1.3391869082   -0.1204878879
 H   -1.6661330791   -2.6959901618    0.7797390042
 H   -3.3653702531   -2.8063293082   -0.8312870871
 H   -1.2915422051   -3.8522170007   -1.3194288580
 H   -0.8984915080   -1.1654530279   -2.8280872839