18

 C   -0.3420380313    1.4033995828   -0.2008888681
 C    0.2209790630    0.0110140876    0.1168614024
 C    0.8825597079   -0.6263623723   -1.0854334096
 C    0.9316586357   -2.0830155336   -1.3614496482
 C   -0.0222281480   -3.0208501054   -0.6377285833
 O   -1.3292337860   -2.5495129018   -0.9816381790
 C   -1.2564594834   -1.5043939297   -1.8634466214
 O   -2.2237773635   -0.9386607102   -2.2709775172
 N    0.0984150611   -1.2199707931   -2.2181695922
 H    0.4424866273    2.0696027461   -0.5752125431
 H   -1.1246863997    1.3407259469   -0.9615590637
 H   -0.7712584123    1.8604116648    0.6950883014
 H    0.9799711191    0.0849236999    0.9062273723
 H   -0.5743535827   -0.6285123278    0.5124261360
 H    1.7172356761   -0.0465629251   -1.4756891526
 H    1.8103919196   -2.5192400989   -1.8261140130
 H    0.0893102917   -4.0486848295   -0.9964529121
 H    0.0777724855   -3.0153790005    0.4522884013