13

 N   -0.0582957308    1.3410386037   -0.0081785617
 C    0.0469307048   -0.0122058165    0.0149384652
 O    1.1138209442   -0.6173633796    0.0056416594
 C   -1.2082256506   -0.7627969486    0.0440571809
 C   -1.3911555845   -2.1205511279    0.0650862228
 N   -0.4792918816   -3.1255846800    0.1648318466
 N   -2.7529155885   -2.3339070464    0.0292021509
 N   -3.3687070937   -1.2278846149   -0.0058838304
 O   -2.4324699141   -0.1868669730    0.0091182996
 H    0.7859707991    1.8875319791   -0.0351408411
 H   -0.9518322202    1.8020132468   -0.0008986963
 H    0.4706336699   -2.8319094335   -0.0205624598
 H   -0.7591369539   -4.0218080393   -0.2012786558