18

 C   -0.0935319949    1.5669265689    0.0241499647
 C    0.0141958898    0.0349163942    0.0002365065
 C    0.6625954317   -0.4756589094   -1.2966980034
 C    0.9518399049   -1.9800175346   -1.2352888715
 C    1.8018785089   -2.3536737477   -0.0264301060
 O    2.5800241600   -3.2864848069   -0.0413338257
 C    1.5845058629   -1.5363074133    1.1874802557
 C    0.7589276676   -0.4816801711    1.2055861927
 H    0.8990499024    2.0291183152   -0.0068568390
 H   -0.6606207996    1.9288464421   -0.8390725984
 H   -0.5991308120    1.9167538325    0.9300235315
 H   -1.0107484636   -0.3690815722    0.0552405072
 H    0.0205940708   -0.2438077574   -2.1533511821
 H    1.6040141341    0.0678618377   -1.4525600336
 H    0.0069484049   -2.5364159721   -1.1475548647
 H    1.4528023125   -2.3455727725   -2.1352129988
 H    2.1192930202   -1.8604648626    2.0751080404
 H    0.6015479695    0.0570622992    2.1391799745