18

 C   -0.9027993983    0.5185246973   -1.0192459880
 C   -0.1539093155    0.6552730373   -0.0877907458
 C    0.7882443069    0.8212311958    1.0238586770
 N    1.8288847489    1.8469837417    0.8788348923
 C    2.2981594742    2.2161448879   -0.4612331858
 C    1.4929069646    3.1519431550    0.3571183647
 C    0.1300770214    3.7879295778    0.0662231304
 O    0.5783465690    5.0324031305    0.6457097859
 C    1.8594905952    4.4764565639    1.0170655359
 H   -1.5761341583    0.3909049890   -1.8309453763
 H    0.2336516417    1.0447801595    1.9430208529
 H    1.3005777801   -0.1327871424    1.1968499891
 H    3.3735341274    2.3450384575   -0.5568447149
 H    1.8049668734    1.7641805493   -1.3196977260
 H   -0.1453577100    3.8942839695   -0.9893315600
 H   -0.7194886178    3.3619534707    0.6140022469
 H    1.9942381562    4.4236755210    2.1051834314
 H    2.6952313708    5.0302057184    0.5715129304