29

 C   -1.2187132536    1.4885558569   -0.4770655660
 C   -0.4651224655    0.1763162842   -0.2298350287
 C    0.4097130551   -0.3705164154   -1.3902847847
 C   -0.4570582673   -0.5942164250   -2.6447801886
 C    1.5360942316    0.6267769107   -1.7173948622
 C    0.9815126919   -1.7313552305   -0.9021173969
 C    2.0151521354   -2.4579955425   -1.8021359560
 C    3.4609340191   -2.1990504845   -1.3496439642
 C    1.7408032741   -3.9693178722   -1.8400720893
 H   -0.5412723377    2.3174482007   -0.7040116005
 H   -1.9319427946    1.4043948696   -1.3025715363
 H   -1.7867158779    1.7698274659    0.4155908166
 H    0.1794143122    0.3023748792    0.6503911553
 H   -1.1936730821   -0.5995071639    0.0412558407
 H   -0.8524614345    0.3492295761   -3.0329959632
 H    0.1169752445   -1.0569252828   -3.4538131506
 H   -1.3078808569   -1.2492496827   -2.4243918443
 H    2.1633471222    0.8212086026   -0.8401489785
 H    2.1826451874    0.2540809763   -2.5174450128
 H    1.1307575622    1.5854482927   -2.0554443368
 H    1.4264943314   -1.5848678134    0.0917124167
 H    0.1226238395   -2.3960711977   -0.7425848851
 H    1.9149434991   -2.0845279678   -2.8293686348
 H    3.6270373244   -2.6056487270   -0.3445828430
 H    4.1782051286   -2.6805227333   -2.0234329558
 H    3.6978543507   -1.1323610884   -1.3167354720
 H    0.7416463240   -4.1835411243   -2.2337651728
 H    2.4702375897   -4.4915419048   -2.4687961916
 H    1.8005885468   -4.4025250187   -0.8341689145