19

 C   -0.0000682766    1.5634453616   -0.0622218329
 C    1.5297741970    1.5164442344   -0.1341093295
 N    1.9758305917    0.8333453061    1.1076851272
 C    1.5279659292    0.0305429347   -0.0593781674
 C   -0.0008724666   -0.0008554148    0.0061467039
 C   -0.7166764545   -0.8651887983    1.0980594252
 C   -1.4086136632   -1.6384579412   -0.0293657727
 N   -2.1855264876   -0.6315991593   -0.7976631658
 C   -0.7351825773   -0.8100522030   -1.0655730901
 H   -0.4079535460    2.0916584928    0.8026466194
 H   -0.4782551022    1.9253169217   -0.9750333489
 H    2.1979639044    2.1846808895   -0.6634410270
 H    2.9961659598    0.8265721605    1.0927762590
 H    2.1857353516   -0.7024521074   -0.5129988825
 H   -0.0018092368   -1.4586523644    1.6721658150
 H   -1.3883745405   -0.3366370043    1.7783779913
 H   -1.6915680575   -2.6837628365   -0.0513595547
 H   -2.6826336323   -1.1370353707   -1.5316736190
 H   -0.3824716824   -1.0662308813   -2.0583884806