16

 O    0.0521576666    1.3463786411   -0.2651258934
 C    0.0798544542    0.0165726740    0.1962506740
 C   -1.3174209927   -0.6033076165    0.1302877155
 O   -1.8562094425   -0.5259674347   -1.2267407448
 C   -2.1675128249   -1.9310441621   -1.2002626298
 C   -0.9215598567   -2.7422335208   -1.1105404684
 C   -1.5116962429   -2.1289872974    0.1456864513
 C   -2.2382814127    0.0679582433    1.0605535653
 N   -2.9554723350    0.5592528928    1.8211351035
 H   -0.3240885025    1.3278434538   -1.1536849584
 H    0.7688909408   -0.6105965772   -0.3853070248
 H    0.4292513816    0.0381078116    1.2330385105
 H   -3.1214576040   -2.2395095965   -1.6079734474
 H   -1.0616177381   -3.8174171959   -1.1670228570
 H   -0.0018005362   -2.3769707036   -1.5550139221
 H   -1.8226202049   -2.7007580120    1.0075876559