13

 O   -0.0158312347   -0.1042319297   -0.0614157282
 C    0.0085500477    1.1060556708    0.0144099122
 C   -1.2536858796    1.9216803358    0.2745019392
 O   -1.2488809035    3.2503608004   -0.2672994689
 C   -0.1261434575    3.9966153265   -0.2184837800
 O   -0.1508856738    5.1601749898   -0.5013162003
 C    1.1511829260    3.2817330423    0.2113994882
 N    1.1290426730    1.8669857332   -0.1075737210
 H   -2.0950871464    1.4051873717   -0.1859644733
 H   -1.4317733638    1.9688404036    1.3570584528
 H    1.9756535812    3.7704968094   -0.3093145944
 H    1.2923898291    3.4674615747    1.2880246207
 H    2.0006196722    1.3683076816   -0.2141032271