18

 C   -0.4215739494    1.4172677350    0.3022972497
 O    0.2436457835    0.1895185436    0.0163209414
 C    0.9583643984   -0.3544088969    1.0251867685
 N    1.4285953398   -1.5952127714    0.6780067861
 N    1.0868246708    0.2589924301    2.1414852985
 C    1.7638918822   -0.4422942132    3.2216121269
 C    3.2817591639   -0.4784265429    3.0176123048
 N    3.9984660163    0.4200790966    3.7413428286
 O    3.8171920253   -1.2609081641    2.2417447157
 H    0.2979881494    2.2055164151    0.5392835624
 H   -0.9761623075    1.6675485753   -0.6036313060
 H   -1.1020349362    1.3047199611    1.1505982944
 H    1.3233163662   -1.8241399876   -0.2983781531
 H    2.3280125135   -1.8317254068    1.0900381451
 H    1.5217793823    0.0632064966    4.1629005225
 H    1.4376515080   -1.4892799354    3.3108132540
 H    3.5440392842    1.1510407387    4.2600926294
 H    4.9823357091    0.5131782062    3.5435819411