15

 O    0.1039406949    1.4047764319    0.1049032016
 C    0.1274172501    0.0033368093   -0.1189855332
 C   -1.3158050400   -0.4926766567    0.0545303880
 C   -2.2108800070    0.0876135496   -1.0418004419
 O   -2.9913146344   -0.5483170154   -1.6999560046
 C   -1.3927697956   -2.0136933161    0.1004132785
 O   -0.4671948629   -2.7116549240   -0.2544384245
 C   -2.6257756949   -2.5728731436    0.6140055070
 C   -3.6428467136   -3.0238683811    1.0724945375
 H    0.9725526778    1.7597915119   -0.1051796238
 H    0.4892157393   -0.2465029610   -1.1257530501
 H    0.7753621449   -0.5176594235    0.5979187705
 H   -1.6951817043   -0.0826455071    1.0021502279
 H   -2.0618251410    1.1759460342   -1.1914930300
 H   -4.5409993133   -3.4358569283    1.4647552269