25

 C    0.1280256771    1.5487289229    0.2416721605
 O    0.1489173620    0.1587823875    0.0245413686
 C    0.6648687458   -0.6113600489    1.1067139330
 C   -0.3606173620   -0.7564025428    2.2346440599
 C    1.0700728209   -1.9688296282    0.5228479891
 C    2.1614362223   -1.8576954556   -0.5210051389
 C    3.6231408041   -1.8896076839   -0.1316263546
 C    3.0298367819   -3.0243443380   -0.9340090953
 C    2.8884596764   -4.4107702755   -0.3428818467
 H    1.1271471335    1.9364218773    0.4965682538
 H   -0.2014971824    2.0156481530   -0.6903891384
 H   -0.5678203446    1.8456477522    1.0403553545
 H    1.5672301273   -0.1118717608    1.4995793845
 H   -1.2614690292   -1.2576756773    1.8664025989
 H    0.0541928212   -1.3485271616    3.0567754312
 H   -0.6532007367    0.2151399080    2.6431328996
 H    1.3854851426   -2.6157990829    1.3483222463
 H    0.1731207519   -2.4275950910    0.0853100081
 H    1.9044994761   -1.1669427764   -1.3178380290
 H    4.3140391568   -1.2050388174   -0.6120635795
 H    3.8575929137   -2.0923945187    0.9100666056
 H    3.2969813363   -3.0327786573   -1.9882695488
 H    2.6724516694   -4.3803408655    0.7289800435
 H    2.0821315408   -4.9734941912   -0.8272623671
 H    3.8142889646   -4.9828552879   -0.4708011389