16

 O   -0.4983236674    1.4686840782    1.0063950517
 C    0.2138704742    1.0375055865    0.1334272789
 C    1.5432264821    1.6554044748   -0.2328067295
 N    2.3210537034    0.9192711542   -1.2515126347
 C    2.5326554814    2.1486645987   -2.0660215918
 C    1.4595566579    2.8418216110   -1.2257797645
 C    0.2595775003    3.6063112071   -1.6260167782
 N    1.3909269544    4.2538176064   -0.9256053155
 H   -0.0793566807    0.1794497005   -0.5115067301
 H    2.0824032521    1.9326753917    0.6843782854
 H    3.1691910451    0.4851525379   -0.9073571683
 H    3.5157940714    2.6213501143   -1.9446776206
 H    2.3279797974    2.0145987170   -3.1333095152
 H    0.1310380980    3.9092946828   -2.6615647334
 H   -0.6618164265    3.4358318929   -1.0759910921
 H    1.1607810469    4.4008645560    0.0548941577