18

 O   -0.1356619997    0.7745932916   -0.9750098938
 C   -0.1643256854   -0.2530006100   -0.0277074735
 C   -0.2136346223    0.0916129409    1.4372634663
 C   -1.4530410578   -0.4327911764    0.7265489906
 C   -2.6037803829    0.4812895996    0.4580823693
 C   -3.9206541481   -0.0728336010   -0.0142895070
 N   -3.7781850550    0.4538326119    1.3236386408
 C   -3.9365073796   -0.2929329498    2.4752394332
 O   -4.7893985084   -1.1305495232    2.6479333168
 H    0.7394004048    1.1756745041   -0.9532136237
 H    0.3672401748   -1.1583317233   -0.3195833049
 H    0.2900890053   -0.5504160899    2.1512930994
 H   -0.2054849665    1.1483181990    1.6847373980
 H   -1.7379793224   -1.4581171506    0.9466730568
 H   -2.3237161671    1.4728554946    0.1147857445
 H   -4.5377268580    0.5064877579   -0.6951112831
 H   -4.0169853667   -1.1520310436   -0.1061988423
 H   -3.2256608252    0.0195045983    3.2640669926