20

 C   -0.0280820085    1.5896810970   -0.1303347818
 C    0.0295421254    0.0747357071   -0.0352306121
 C    0.8694324378   -0.7983448303   -1.0173549784
 C    1.2640680366   -1.6356986800    0.2228784294
 C    2.6606567561   -1.4234435546    0.8628558595
 O    3.5433601029   -0.5440254430    0.1504454140
 C    3.0561741875    0.6034858085    0.8884923926
 C    2.0273663633   -0.2578130004    1.6675035232
 N    0.6626231003   -0.6063831097    1.1539191203
 H    0.9416288101    2.0568265895   -0.3105643920
 H   -0.6883777516    1.8789575912   -0.9551373931
 H   -0.4450829982    2.0111716373    0.7909613016
 H   -1.0069970100   -0.2866333698   -0.0369997986
 H    0.3188671089   -1.3140734372   -1.8073550428
 H    1.7284770038   -0.2823935169   -1.4539561308
 H    0.8478446764   -2.6465653932    0.2843764042
 H    3.1756587400   -2.2928712189    1.2784907472
 H    3.8406995381    1.0048911330    1.5436196454
 H    2.7023826415    1.4006839473    0.2324314437
 H    2.0501847995   -0.1453700869    2.7523732786