18

 O   -0.1228251484   -0.0228495981    0.0014641892
 C   -0.0221209617    1.1764689819    0.0083346350
 C    1.2805548392    1.9453370192   -0.0001590950
 C    1.3702450674    2.8438394347   -1.2523605503
 C    2.6046849997    3.7457352600   -1.1738500673
 O    2.6134182734    4.5271280181    0.0072809898
 C    2.6313010259    3.7252954654    1.1745222035
 C    1.3987860242    2.8218871338    1.2652703106
 H   -0.9295104265    1.8281768318    0.0223595471
 H    2.0920463403    1.2084525277   -0.0156587012
 H    1.4121259482    2.2334935500   -2.1613127968
 H    0.4743239680    3.4742186640   -1.3190683326
 H    3.5195384241    3.1301831899   -1.2279037033
 H    2.6251229115    4.4515258781   -2.0091376520
 H    3.5470293281    3.1090874554    1.1971214774
 H    2.6707572337    4.4164359385    2.0213006477
 H    0.5047167907    3.4508025446    1.3632956593
 H    1.4611577623    2.1956789449    2.1621667091