15

 O    0.4106146377    2.1730927292   -1.2566739899
 C    0.1137786524    1.6670932689   -0.1949402574
 N    0.9606834091    0.9780244648    0.6280939481
 C    2.3097237053    0.6979005067    0.4037084727
 N    2.9460624983   -0.1329936297    1.1413941673
 C    4.3271299691   -0.1153507121    0.6269306565
 C    4.2619260266    0.6301375553   -0.7378960864
 N    2.9964675675    1.3562770461   -0.5899067712
 H   -0.9063879755    1.7160098678    0.2269585504
 H    0.5845847277    0.5385069287    1.4555183287
 H    4.9744236704    0.4181785757    1.3359833337
 H    4.7194759749   -1.1314049140    0.5308752103
 H    5.0998003363    1.3136985852   -0.8964541030
 H    4.2241205514   -0.0722162441   -1.5825366802
 H    2.4688767089    1.7008389515   -1.3800717896