14

 O    0.0054703419    0.1320210477   -0.0037790573
 C   -0.0158091083    1.3392085762    0.0065405199
 C    1.1937866971    2.1567673520    0.3834721301
 C    2.0632043202    1.6643883110    1.4753173739
 O    2.4577402466    1.5533990968    0.1213649478
 C   -1.2535427247    2.1199377519   -0.3568171554
 C   -2.1051834681    1.6160924344   -1.4574348444
 O   -2.4953913590    1.4679136089   -0.1058136788
 H    1.1475895143    3.2287306684    0.1938489150
 H    2.6118257673    2.3876585622    2.0765963461
 H    1.7932186872    0.7274025208    1.9579443111
 H   -1.2452205587    3.1894259442   -0.1486758224
 H   -2.6791952682    2.3297449990   -2.0463805505
 H   -1.8025909876    0.6976029666   -1.9560069851