18

 C   -0.4599687951    1.4435430500   -0.0583919037
 C   -0.0844876329   -0.0198842129   -0.0686522237
 C    0.5966513865   -0.7130466022   -1.2099890927
 C    1.3639929662    0.1380350929   -2.1594865491
 C    2.3871457256    0.7275107472   -1.5407834324
 C    2.4345279094    0.2703278800   -0.0890435595
 C    2.6316501913    1.3833464693    0.9258348486
 O    1.9287769833    1.6163444029    1.8718252444
 N    1.2639463829   -0.5940820166    0.1166333157
 H    0.1997181788    2.0583351103   -0.6733715136
 H   -1.4787183159    1.5497249949   -0.4483895695
 H   -0.4392231627    1.8331252705    0.9613827335
 H   -0.8068906662   -0.6348225461    0.4667721894
 H    0.2734828334   -1.7031403397   -1.5236090087
 H    1.1016750429    0.2527866064   -3.2041448403
 H    3.0900585103    1.4306740512   -1.9720410701
 H    3.3409824150   -0.3502229340    0.0536488189
 H    3.5579229573    1.9749574056    0.7340313128