18

 C   -0.0628945020    1.4626262989    0.1332237908
 C   -0.0355035855    0.0094070513    0.0506788542
 C   -0.0205069972   -1.1913247571   -0.0363971506
 C    0.0031525481   -2.6497719405   -0.1142626834
 C    0.6898226402   -3.2986820552    1.1107040222
 C   -0.4767500332   -3.3931006017    2.0979693531
 O   -1.6384638674   -3.6264997397    1.2816881969
 C   -1.4113321721   -3.2272610100   -0.0035393082
 N   -2.2315708910   -3.3316445011   -0.9541717489
 H    0.4972866938    1.8250037070    1.0022361324
 H    0.3792178747    1.9178507899   -0.7597301039
 H   -1.0896252034    1.8344256421    0.2207677069
 H    0.4445014389   -2.9682147447   -1.0616995747
 H    1.0442826159   -4.2997161076    0.8470539223
 H    1.5277992050   -2.7151813605    1.4927792693
 H   -0.3944831443   -4.2204973405    2.8059134304
 H   -0.6142140003   -2.4581881224    2.6535548627
 H   -3.1087650302   -3.7412020881   -0.6275188216