11

 C   -0.0294202895    1.3896640834    0.0104285645
 C    1.1839009072    2.0699904425    0.0022445846
 C    2.3604497801    1.3256760543   -0.0136579488
 N    2.3936102870   -0.0099666862   -0.0215520597
 C    1.2200579139   -0.6485681160   -0.0135259495
 C   -0.0125339478   -0.0012748579    0.0023764114
 H   -0.9689982083    1.9323926418    0.0228333520
 H    1.2218066594    3.1536779075    0.0080144952
 H    3.3259353677    1.8261124856   -0.0203835107
 H    1.2689447457   -1.7349427470   -0.0201755077
 H   -0.9323305154   -0.5755464680    0.0082555288