19

 C    0.0768486061    1.3768639071    0.3649606866
 C   -0.1060940133   -0.1251441393    0.1349031108
 C   -1.5410833910   -0.5089989157   -0.2279673383
 C   -1.7807725970   -2.0267000765   -0.3556231643
 C   -2.2538580928   -2.4145013241    1.0518873057
 C   -2.8754931188   -1.1361559945    1.5715612785
 N   -3.6658545742   -1.0429436852    2.5517524874
 O   -2.4520048852   -0.0812127268    0.8122107889
 H    1.1114317024    1.6110058940    0.6318218045
 H   -0.1732979999    1.9469830531   -0.5367894491
 H   -0.5728670973    1.7265063019    1.1713070516
 H    0.5454514780   -0.4640739054   -0.6806632822
 H    0.1987274999   -0.6827176063    1.0299765198
 H   -1.8427084672    0.0298388037   -1.1326034614
 H   -2.5684126036   -2.2212733437   -1.0892680142
 H   -0.8831916482   -2.5589724268   -0.6778239775
 H   -2.9708061251   -3.2352101554    1.0794764200
 H   -1.4155728891   -2.6914753349    1.7004460951
 H   -3.9292773338   -0.0678035351    2.7051855780