15

 N    0.7826429795    0.1304902009   -0.6061776674
 C   -0.1258514104    0.2207500468    0.3915458977
 O   -0.2152664962    1.1245926165    1.1963532932
 N   -1.0520834133   -0.8511010412    0.4517917364
 C   -1.1181642536   -2.0123556052   -0.2600881672
 N   -0.3145101269   -2.3187925030   -1.2121162856
 C   -2.2783463095   -2.8794615576    0.2494887723
 N   -2.7088656559   -3.8339842428   -0.6191327914
 O   -2.7455173221   -2.7110720238    1.3582237897
 H    1.4881221184    0.8450029705   -0.6402245745
 H    0.8276289291   -0.7046645195   -1.1790155508
 H   -1.6986629787   -0.7860341419    1.2276057072
 H   -0.4891344042   -3.2540226386   -1.5664528086
 H   -2.5168612025   -3.7547170503   -1.6035328623
 H   -3.5249947037   -4.3588908108   -0.3453823487