17

 O    0.0705368227    1.3087888055    0.0046087832
 C    0.0706209736   -0.0641831743    0.0394111044
 C    0.7719257520   -0.9094818460    1.1032799045
 C    0.1128114636   -1.9320984450    0.1493188000
 C   -1.1705997325   -1.0493254522   -0.0483777799
 C   -1.0236864287   -1.1218545863   -1.5605893636
 C   -1.7791398432   -1.6853472045   -2.6693781510
 O   -1.6387249314   -0.2544322607   -2.4967851270
 C    0.4337529901   -1.0765848323   -1.1276357610
 H   -0.4408341053    1.5931783254   -0.7630815615
 H    1.8654600081   -0.8788999378    1.1125310816
 H    0.3693506602   -0.8534762338    2.1189738670
 H    0.1242641760   -3.0179379754    0.1937667607
 H   -2.0598955392   -1.0420383152    0.5808738111
 H   -1.2599716216   -2.0965146966   -3.5340436601
 H   -2.7850338356   -2.0706002382   -2.5081386851
 H    1.3515909112   -1.1000079526   -1.7140519533