17

 C   -0.1420317777    1.4346624950    0.0908421053
 O    0.0644391694    0.0273471279   -0.0491835845
 C    0.6829682996   -0.5502225304    1.0297390343
 C    1.9887333656   -0.9356774613    1.1101791059
 N    3.0627711162   -0.7789097538    0.2434657166
 O    2.2320762234   -1.5251704176    2.2957225040
 C    1.0384213659   -1.5305161816    3.0079877580
 C    0.0623155874   -0.9361920026    2.2726584606
 N   -1.2731127438   -0.6546935451    2.5887733585
 H    0.8133862581    1.9651210030    0.1896987934
 H   -0.6533869195    1.7691714917   -0.8151755774
 H   -0.7627218333    1.6582419672    0.9665429835
 H    2.7374754744   -0.5689085071   -0.6921839788
 H    3.6685486018   -1.5914446562    0.2284628984
 H    1.0818622633   -1.9747205459    3.9861154060
 H   -1.6391249535   -1.2422517266    3.3266586106
 H   -1.8677055472   -0.7305341568    1.7718061457