18

 C    0.1235610710    1.5956666220    0.0229725511
 C    0.0627970949    0.0703738933   -0.0045772469
 N    0.7912436086   -0.5131715248   -1.1257234173
 C    1.5831788955   -1.5953545420   -0.8529544144
 O    2.1922243515   -2.2606009441   -1.6623146236
 C    1.5800115396   -1.7787829775    0.6648222020
 C    2.7603640387   -1.0720068399    1.3618447059
 O    1.9324876774    0.0766640227    1.6605211479
 C    0.7429539592   -0.6043455283    1.2051205397
 H    1.1572558496    1.9300346508    0.1270413223
 H   -0.3009601939    2.0175467129   -0.8935048417
 H   -0.4544709916    1.9831620916    0.8677414148
 H   -0.9903280912   -0.2496811322   -0.0314243957
 H    0.6416468666   -0.2300356199   -2.0818331014
 H    1.3601865639   -2.8060674637    0.9505034442
 H    3.1059948540   -1.5667683179    2.2773787572
 H    3.6224041293   -0.8188320873    0.7360441558
 H    0.0444886369   -0.7824128357    2.0288881502