18

 C   -0.0702457795    1.3748916115   -0.0363745959
 O    0.0523788714   -0.0429786669   -0.0491497409
 C    0.6615522687   -0.5366265090   -1.1629723500
 C    2.1590207326   -0.3715740525   -1.6522523641
 C    1.4880843626   -1.3278395723   -2.6947927265
 C    0.8210997265   -2.0542438517   -1.4722899510
 C    0.2976517573   -0.3851597972   -2.6404119719
 N   -0.5543963168    0.2333084872   -3.3305279469
 O   -0.3793574804   -0.0280537375   -4.7171661360
 H    0.9152086735    1.8597816766   -0.0174730068
 H   -0.6281587637    1.7300058893   -0.9106676874
 H   -0.6120747529    1.6335028426    0.8749612046
 H    2.4718222076    0.6098599091   -2.0117699308
 H    2.9068452998   -0.8395779504   -1.0069961781
 H    1.9454372724   -1.7797457598   -3.5668980951
 H    1.5125966457   -2.5909448833   -0.8178662902
 H   -0.0935885053   -2.6167482124   -1.6645755971
 H   -1.0939619295    0.4889860168   -5.1036966461