15

 C   -0.0391351388    1.4558063024   -0.1535824296
 C   -0.0975570220   -0.0336761023    0.0730334219
 O   -0.2273082964   -0.5884536480    1.1320741083
 O    0.0178722842   -0.7013781472   -1.1036032819
 C   -0.0249965659   -2.1291698570   -1.0050523150
 C    0.1219522737   -2.6517532217   -2.4368992138
 C    0.0946740170   -4.1107466806   -2.4853770004
 N    0.0715594524   -5.2653282939   -2.5099488371
 H    0.9062928729    1.7257843177   -0.6324797925
 H   -0.8443039057    1.7649780443   -0.8260288463
 H   -0.1332313115    1.9703775705    0.8015904502
 H    0.7850897492   -2.4865022226   -0.3635026792
 H   -0.9708028552   -2.4472106544   -0.5580482976
 H   -0.6867215953   -2.2554541368   -3.0599447775
 H    1.0640561213   -2.2946332005   -2.8659653495