20

 O    0.1097007981    1.3743214715   -0.0121527577
 C   -0.0053012509   -0.0306797708    0.1447719836
 C   -1.4303044345   -0.5324560613    0.0592290190
 C   -1.6566424665   -2.0753060523    0.0335880764
 C   -2.5259428130   -1.9177039839   -1.2571751735
 C   -2.3102771865   -0.3820429067   -1.2101805218
 N   -3.3055904625    0.5206072306   -0.4987335731
 C   -3.8633787248   -0.1939933654    0.6663996402
 C   -2.4911778125    0.3251755125    0.7796492032
 H   -0.2998160041    1.6135707140   -0.8504739170
 H    0.6174691976   -0.5696202743   -0.5888253115
 H    0.4075272365   -0.2506211976    1.1376735850
 H   -0.7351722951   -2.6410988521   -0.1303822943
 H   -2.1591868938   -2.4910855168    0.9104152963
 H   -2.0688663381   -2.3703409418   -2.1405838486
 H   -3.5610853877   -2.2636756052   -1.2030564431
 H   -1.9692602931    0.1046099275   -2.1266936335
 H   -4.6491350511    0.3795832757    1.1500841135
 H   -4.0683409034   -1.2584407335    0.6190594723
 H   -2.2357384545    1.1725881800    1.4074986945