19

 C    0.4007192486    0.6388030227   -0.2348934924
 O   -0.8027653431    0.5782786288    0.5167377826
 C   -1.6435365986   -0.5095975746    0.2779405275
 C   -1.9761163254   -1.0525277764   -1.1268173121
 N   -0.8030582338   -1.8070560889   -1.6426783808
 C   -1.7156720576   -2.4531802872   -0.6706575800
 C   -1.2558202645   -1.9615387504    0.6853090940
 C   -0.1681717845   -2.4240854711    1.5645473021
 N   -1.5873644950   -2.5996025302    1.9501796589
 H    0.9733437196    1.4734128378    0.1776882627
 H    0.9829248136   -0.2852615072   -0.1583593400
 H    0.2051368603    0.8283117394   -1.2971967306
 H   -2.5864172371   -0.2573104490    0.7787079813
 H   -2.7360633747   -0.6808938928   -1.8028914423
 H   -1.0612138028   -2.1421212757   -2.5709193715
 H   -2.2552784273   -3.3627396364   -0.8988119731
 H    0.3649936732   -3.3438251413    1.3411287668
 H    0.4158641945   -1.6649706008    2.0789059152
 H   -1.8506579354   -1.8955658868    2.6373817916