16

 C    0.1549329984    1.4778512440    0.1350742841
 C    0.0497609604   -0.0037389360   -0.0183206887
 C   -0.0157203673   -0.8035109508   -1.1411257172
 C   -0.0959945999   -2.1242254035   -0.6521491620
 N   -0.0818995372   -2.1630480668    0.6736624501
 N    0.0021173417   -0.8616915544    1.0449091661
 C    0.0599832124   -0.5497050181    2.4545621965
 C    1.3824522107   -0.0749144385    2.8910183063
 N    2.4117546182    0.3218941134    3.2326143113
 H    1.0695870380    1.7709418487    0.6623047836
 H    0.1683324275    1.9494304779   -0.8492443897
 H   -0.6938448078    1.8948907861    0.6905812929
 H   -0.0076697687   -0.4706374486   -2.1666498987
 H   -0.1679479664   -3.0458571086   -1.2108742921
 H   -0.6852793288    0.2101845866    2.7150028965
 H   -0.1919832612   -1.4691774914    2.9871805208