23

 C    0.4862838936    1.3400899951    0.0310158472
 C   -0.2341954832   -0.0355021796   -0.0006591067
 C   -1.7630975151    0.2194996930    0.0980572420
 C    0.0517197952   -0.6525463116   -1.3523583232
 C    0.7903712519   -1.6977372692   -1.7218546334
 C    1.5564077612   -2.6683940628   -0.8615547380
 C    0.8177770419   -3.1355315850    0.4016985902
 C    0.5690080530   -2.0591919045    1.4257553459
 C    0.1663487938   -0.8029870180    1.2403392280
 H    1.5714946500    1.2124289931   -0.0127531021
 H    0.1804943507    1.9583619275   -0.8194773681
 H    0.2406535554    1.8854289550    0.9491615701
 H   -2.1038795302    0.8571426705   -0.7253496659
 H   -2.3183252155   -0.7217055238    0.0561265624
 H   -2.0131059140    0.7219775660    1.0383323036
 H   -0.4111455710   -0.0822072855   -2.1586962828
 H    0.8615739176   -1.8815074985   -2.7926885673
 H    1.8045582615   -3.5483532842   -1.4660946135
 H    2.5189104038   -2.2281347578   -0.5661024816
 H   -0.1342910777   -3.5968172629    0.1045262963
 H    1.4019889321   -3.9348800808    0.8719245910
 H    0.7391148737   -2.3621008391    2.4576608756
 H    0.0466263112   -0.1989435169    2.1406203904