21

 C   -0.9840977793    0.7359923766    0.1573735910
 C    0.4403185921    0.7872964937   -0.3496288145
 O    1.2428674957    1.6224543869   -0.0005904596
 C    0.8249065530   -0.2829057876   -1.3712415237
 C    2.2622482105   -0.8174776356   -1.3129729553
 C    1.6012622358   -2.1850214354   -0.9898031139
 C    1.7530062926   -3.2545627083   -2.0612882810
 C    1.8563580965   -2.7249075011    0.4099511391
 O    0.2651001838   -1.5783002912   -1.0688741184
 H   -1.1855751137   -0.2494552736    0.5863994467
 H   -1.1476382949    1.5233597473    0.8937085698
 H   -1.6827185940    0.8583924958   -0.6789223904
 H    0.4965674468    0.0733030656   -2.3605173129
 H    2.8148539419   -0.7812958534   -2.2525114961
 H    2.8663502345   -0.3786787957   -0.5181164842
 H    2.7722751533   -3.6558307330   -2.0649404399
 H    1.0598176183   -4.0814060864   -1.8763565443
 H    1.5393880360   -2.8449609147   -3.0526390486
 H    1.7288364599   -1.9394717459    1.1602463886
 H    1.1584349643   -3.5366713857    0.6394668753
 H    2.8762442169   -3.1159881585    0.4920318921