18

 O   -0.0733656010    1.4247613162   -0.0744099951
 C    0.0290975709    0.0107607726    0.0094883826
 C   -1.3909245002   -0.5461605857    0.0250523258
 C   -1.4351965218   -2.0371215788    0.0839375356
 C   -2.6168984746   -3.0427701162   -0.0161032314
 C   -1.7465339948   -4.1037537606    0.6717003686
 C   -1.7091019676   -3.9318646098   -0.8238201804
 N   -0.5530904695   -2.9368337300   -0.7524488575
 C   -0.5957410033   -3.0728673299    0.7531797133
 H    0.8151422584    1.7838924583   -0.1511660066
 H    0.5750021106   -0.4110178930   -0.8457742598
 H    0.5600053185   -0.2949646148    0.9255588622
 H   -1.9316388615   -0.1254217599    0.8824664710
 H   -1.9103893367   -0.1996807440   -0.8775540253
 H   -3.6920867898   -2.9330177272   -0.0127940473
 H   -2.0471118340   -4.9398230436    1.2863310589
 H   -1.8910296326   -4.6118823005   -1.6465114222
 H    0.2990186690   -3.0052041831    1.3614129677