20

 C   -0.0606272925    1.5374601611    0.0392788751
 C    0.0601010807    0.0135223876    0.0156508327
 C    0.7415144715   -0.5043838932   -1.2613314619
 C    1.0345730933   -1.9744547529   -1.0990580713
 C    0.0460932084   -3.0341088399   -1.5023534018
 C    1.3653159249   -2.8780871644   -2.2395728506
 O    1.7740623892   -2.2543526188    0.0841252625
 C    1.5206755760   -1.4425052218    1.1432167739
 N    0.7712397378   -0.4286949403    1.2192855086
 H    0.9300320056    2.0022761421   -0.0016849150
 H   -0.6467781450    1.8976846368   -0.8127417374
 H   -0.5460276596    1.8622543908    0.9630567601
 H   -0.9535528519   -0.4102977554    0.0642079009
 H    0.1134411760   -0.3403412354   -2.1424599466
 H    1.6806703827    0.0416381620   -1.4197303143
 H   -0.0566432099   -3.8896965501   -0.8454298059
 H   -0.8678681883   -2.7221276690   -1.9969872095
 H    1.3595307875   -2.4603134234   -3.2404319685
 H    2.1247310632   -3.6307319928   -2.0613208860
 H    2.0934011905   -1.7822945531    2.0043423650