18

 O    0.0424440494    0.9371354277    0.9719543179
 C    0.0806183940   -0.1692312857    0.0782550144
 C   -1.3267041235   -0.6963870603   -0.0422713343
 C   -1.7077043840   -2.1533230195   -0.1990565860
 C   -0.8124753627   -3.0819256388    0.6403773897
 N   -1.1377006977   -2.2657225606    1.8246477528
 C   -0.3172345762   -1.9622587793    2.8672676160
 O    0.6892211698   -2.5786528212    3.1489881992
 C   -2.0407956695   -1.3928423997    1.0829484504
 H    0.9428033572    1.2543210126    1.0925130545
 H    0.4423427992    0.1320289420   -0.9173228225
 H    0.7604628855   -0.9479722808    0.4483299213
 H   -1.9953517460   -0.0390494066   -0.5942216189
 H   -2.3821773885   -2.4928748525   -0.9724212852
 H   -1.2115845435   -4.0970181817    0.7239356207
 H    0.2545338352   -3.1333509326    0.4059406619
 H   -0.6984595760   -1.1024235039    3.4530861397
 H   -2.9922373827   -1.0814552190    1.4956706685