17

 C   -0.0366625412    1.5214418017   -0.0051328810
 C   -0.0101742176    0.0155594031   -0.0073877271
 C   -0.0240006082   -0.7024769279   -1.2025506408
 C    0.0007877898   -2.0949620326   -1.2166832877
 C    0.0402942829   -2.8011528295   -0.0173989122
 C    0.0547247128   -2.1090403298    1.1864203870
 C    0.0299642402   -0.7060569049    1.2069141298
 C    0.0456056173   -0.0190014055    2.4556575369
 C    0.0590403795    0.5629302506    3.5107411256
 H    0.8491127960    1.9333393253    0.4906050320
 H   -0.0743941135    1.9153444641   -1.0236792546
 H   -0.9042747931    1.9025522402    0.5442088369
 H   -0.0549197075   -0.1564681824   -2.1405812692
 H   -0.0108650271   -2.6256614933   -2.1629197495
 H    0.0597363254   -3.8855899522   -0.0184396256
 H    0.0853389429   -2.6438206051    2.1290141525
 H    0.0715883115    1.0730431782    4.4418120870