23

 C   -0.2492532987    1.5180763032    1.1539614271
 C   -0.0906400140    0.0716247670    0.7147166822
 C    0.9332175183   -0.3521024171   -0.3996262443
 C    2.2552315443    0.1001754099    0.2290289290
 C    2.1410500875   -0.2996500436    1.4988721933
 C    0.7559815003   -0.9660418851    1.5543487894
 C    0.2714957300   -1.5487293335    2.8631186630
 C    0.8481231501   -1.8074449116    0.2087544404
 C   -0.3081196154   -2.7186769318   -0.1870802681
 H    0.7132966257    1.9860558949    1.3740344555
 H   -0.7438106662    2.1067841569    0.3728601953
 H   -0.8738002264    1.5831810694    2.0524820176
 H   -1.0820179042   -0.3396142297    0.5009703877
 H    0.7572400040   -0.1532456337   -1.4577536900
 H    3.0687225716    0.6069848486   -0.2708081889
 H    2.8342522748   -0.2095125001    2.3243911787
 H    0.1713719752   -0.7712703217    3.6293348108
 H   -0.7057756019   -2.0299862503    2.7511672661
 H    0.9705676291   -2.3007005242    3.2472621855
 H    1.7871594842   -2.3621344260    0.1193742721
 H   -1.2891988979   -2.2395591947   -0.1377769459
 H   -0.1691973705   -3.0783559423   -1.2129423059
 H   -0.3382870603   -3.6007626848    0.4629907893