13

 C   -0.1459787368    1.5432042537    0.0845227788
 C    0.0145535860    0.0323840370   -0.0270659633
 C    0.8938823871   -0.5405151223   -1.1628204176
 O    1.7962333949   -1.1332185043   -0.1765567760
 C    1.0582211483   -0.6135084714    0.8680502633
 N    1.2419814608   -0.6691556002    2.1064687864
 H    0.8184450566    2.0508620872   -0.0169602741
 H   -0.8181148911    1.9249791638   -0.6904027370
 H   -0.5623810314    1.8069480955    1.0604754887
 H   -0.9548458286   -0.4676301901    0.0534413926
 H    0.4464545062   -1.3099870959   -1.7962889737
 H    1.4188501795    0.1990755177   -1.7739862592
 H    2.0860226687   -1.1962096906    2.3367016212