16

 O   -0.0168743841    0.0435230847    0.1995497685
 C   -0.0452487769    1.2372948361    0.0510916754
 C   -1.2798290593    2.0845806317   -0.1238970351
 N   -1.3297192933    3.2138083580    0.8464940738
 C   -0.8532431790    3.4627004800   -0.5168016041
 C    0.6728480977    3.5322927169   -0.6016700328
 C    1.4174100167    4.0545629340    0.6477362197
 O    1.7324351327    2.7065015774    1.0739266434
 C    1.1880097096    2.1511307477   -0.1405557766
 H   -2.2019380259    1.6151210383   -0.4462184099
 H   -2.2998097193    3.5083691242    0.9336504251
 H   -1.4589299028    4.0606987333   -1.1894307123
 H    1.0113966246    3.9013995965   -1.5697437911
 H    2.3288222191    4.6234330477    0.4294862265
 H    0.8056172265    4.5816143399    1.3840698790
 H    1.9485442337    1.6342893037   -0.7372172394