14

 N   -0.2595623996    1.3844992487   -0.2743969396
 C    0.1096236570    0.1119202021    0.1313063437
 O    1.1805168491   -0.1656840289    0.6031321290
 N   -0.9622955012   -0.7988851742    0.0076227138
 C   -0.8236135896   -2.1937048953    0.0030363230
 O    0.1874515723   -2.7858702985   -0.2316546507
 N   -2.0632714470   -2.8069162713    0.3029650078
 C   -2.3971786332   -4.1413848331    0.0914554297
 O   -1.7471874986   -4.9555153591   -0.5004008583
 H    0.5180125613    2.0279917919   -0.2872451457
 H   -0.8805862481    1.4701242881   -1.0652319019
 H   -1.8872661759   -0.4115851116   -0.0943487340
 H   -2.7433516509   -2.2613052510    0.8117052264
 H   -3.3884604155   -4.3565174177    0.5408089067