20

 C    0.0979262552    1.5074387831   -0.0262277190
 C    0.0089489778   -0.0119763867    0.0222107871
 O    0.6428896194   -0.4855957083   -1.1640703350
 C    0.7090736509   -1.8727275816   -1.3151304698
 C    2.0782938167   -2.4906055972   -1.2723877379
 C    1.1216260133   -2.6924580719   -0.1180547408
 C    1.2601646944   -1.9472772792    1.1804221312
 N    2.1233846676   -0.7502762805    1.2068837701
 C    0.6611549458   -0.5912019873    1.2688093638
 H    1.1467228429    1.8152864352    0.0000121882
 H   -0.3538162849    1.8841154141   -0.9476110233
 H   -0.4236817248    1.9529345025    0.8266381901
 H   -1.0510760922   -0.3221336701    0.0276783418
 H   -0.0357260545   -2.2771737920   -1.9994475580
 H    2.2902828047   -3.3357927240   -1.9176724973
 H    2.8968663082   -1.8012421606   -1.1035595331
 H    0.6657190937   -3.6723214312   -0.0156007113
 H    1.2423028852   -2.5671023133    2.0731230092
 H    2.5299545631   -0.6403163409    2.1315206463
 H    0.2077783776   -0.2794942500    2.2076689875