19

 C    0.1863994953    0.6900860863    0.6916782756
 O   -0.4563951219    0.2592974468   -0.4976438916
 C   -1.5320772374   -0.6279415116   -0.3060054721
 C   -1.1279693518   -2.1009583336   -0.1787669573
 C   -0.1736031311   -2.5532520588   -1.2790368393
 O   -0.5187946096   -2.2753874897    1.1139344090
 C   -0.6370006772   -3.4808042136    1.6983455601
 N   -0.0242140043   -3.7294797518    2.7737408672
 H    0.9085355633    1.4549423148    0.3952881570
 H   -0.5358912655    1.1367132078    1.3914926757
 H    0.7058139204   -0.1263346298    1.2040884863
 H   -2.1275783907   -0.3455471591    0.5754616860
 H   -2.1701839549   -0.5342389367   -1.1931231248
 H   -2.0537760044   -2.6957499144   -0.2105991967
 H    0.1085898385   -3.6011043259   -1.1430842598
 H   -0.6489007429   -2.4498445299   -2.2595935163
 H    0.7280195911   -1.9378123845   -1.2683775547
 H   -1.3084897580   -4.1638486903    1.1575218484
 H   -0.2477522489   -4.6708407360    3.0896996772