21

 C    0.0001578854    1.5452034593   -0.0322266376
 C    1.3014694141    0.7809956300   -0.0027691273
 C    2.1572914904    0.7811976207    1.2511473968
 C    2.6966172176   -0.6022855357    1.5671212040
 C    2.6830910266   -1.1149085556    2.9867434051
 C    1.7241166004   -1.6884575223    1.9589907816
 C    0.2574645845   -1.4444233441    2.0490409735
 C   -0.4840560230   -0.7092107093    1.2146437535
 C   -0.0067289692    0.0276657218    0.0113552320
 H   -0.2834932229    2.0742418252    0.8725491122
 H   -0.3057299997    2.0352244347   -0.9503714355
 H    1.8578462352    0.7388628776   -0.9358926221
 H    2.9828465954    1.4964246481    1.1476930747
 H    1.5559757506    1.1328619018    2.0953944511
 H    3.5311169925   -0.9201773784    0.9469562075
 H    3.5004684515   -1.7385966150    3.3325540519
 H    2.2702346581   -0.4577629040    3.7461299479
 H    1.9783665706   -2.6945325828    1.6280537144
 H   -0.2496105695   -1.9466128333    2.8732432651
 H   -1.5563555583   -0.6509836137    1.4028266445
 H   -0.2937613402   -0.4417289049   -0.9286611536