21

 C    0.1010337122    1.5930621765   -0.2248511146
 C   -0.0283222516    0.0841541222    0.0138392217
 C    0.6403098709   -0.7416674010   -1.1134571582
 C    2.0473683712   -1.0753883615   -0.5480407793
 O    2.1036754758   -0.5242445919    0.7638299641
 C    0.7685945506   -0.4220410297    1.2365716159
 C    0.7533552633    0.4592886944    2.4901489879
 C    1.3897263905   -0.1707858689    3.6405550520
 C    1.8984422459   -0.7000469352    4.5917506727
 H    1.1525508140    1.8928174114   -0.2802245004
 H   -0.3767695333    1.8713136724   -1.1693998102
 H   -0.3764418608    2.1770307026    0.5682826468
 H   -1.0866590906   -0.1779187048    0.1144260216
 H    0.0783764170   -1.6580894375   -1.3128982859
 H    0.6926425988   -0.1813644239   -2.0504172194
 H    2.2088051688   -2.1623963163   -0.5104979714
 H    2.8632403549   -0.6336616058   -1.1276800259
 H    0.3906857221   -1.4217548974    1.5131623687
 H    1.2528212836    1.4071600413    2.2621358405
 H   -0.2893775537    0.6984500944    2.7356682039
 H    2.3588642403   -1.1626355711    5.4289227194