18

 C    0.3398800875    0.7789018333   -0.5953185245
 C   -0.3513214226    0.2161114427    0.6574679602
 C   -1.7292011861   -0.2865369290    0.3800720533
 N   -2.8127343049    0.1322090283    0.8943552689
 C   -3.9005113904   -0.6429538536    0.2953954859
 C   -3.1612058798   -1.7230007387   -0.5653693481
 O   -1.7998858394   -1.2954581597   -0.5439668521
 C   -3.3011178088   -3.1052797271    0.0472527326
 O   -2.4346083259   -3.6853607265    0.6419392018
 H    1.3494650513    1.1184799724   -0.3491692296
 H    0.4142410088    0.0174822523   -1.3755569393
 H   -0.2153013562    1.6304668756   -1.0000863671
 H    0.2382752009   -0.6173829063    1.0571065610
 H   -0.4314758452    0.9756897158    1.4375689123
 H   -4.5334380449   -1.0872071235    1.0714510026
 H   -4.5392413765    0.0051237769   -0.3144008963
 H   -3.5162199878   -1.7530149892   -1.6012363318
 H   -4.3239496300   -3.5338137337   -0.0746369298