16

 C   -0.0078844588    1.3650392256    0.0288978346
 O    0.0335807463   -0.0590424467    0.0514309110
 C    0.6515725135   -0.6373936644    1.0831172581
 N    1.1791241099    0.1065183362    2.0044887927
 N    1.7973678282   -0.5294130925    3.0332436527
 C    1.8846739717   -1.8762705302    3.1423018927
 C    1.3449799910   -2.6851183993    2.1983279716
 C    0.6611001974   -2.1223204005    1.0509937109
 N    0.0965939885   -2.7352624407    0.0693019706
 H    1.0018842693    1.7869264840    0.0074562481
 H   -0.5487429986    1.6265647604   -0.8810007176
 H   -0.5285259715    1.7566286303    0.9084779984
 H    2.1857172336    0.0889500207    3.7232478810
 H    2.4069532986   -2.2399082302    4.0199556419
 H    1.4224485128   -3.7611110205    2.2966215157
 H    0.1918439982   -3.7457180822    0.1989907577