16

 O   -0.6968885092    0.7445817285   -0.7088892551
 C    0.1420030742    0.9063724449    0.1425083785
 C    1.2995756346    1.8369269935    0.0139419058
 C    1.3965863227    3.0847184672    0.9620913647
 C    1.6402766069    3.9905499715   -0.2835061239
 C    1.5819213064    2.7471873235   -1.2165877604
 N    2.8499466860    2.0294698970   -1.3771896215
 C    2.7201177584    1.2442579933   -0.2528787644
 O    3.4466164499    0.4695669300    0.3033280504
 H    0.0996833707    0.3581605414    1.1099223314
 H    0.4573695633    3.3002512220    1.4759421362
 H    2.1955896228    3.0346250822    1.7037803566
 H    0.8233340300    4.6922629125   -0.4641957554
 H    2.5848819669    4.5376608107   -0.3050012216
 H    0.9459624975    2.7677450158   -2.0997030895
 H    3.6977292987    2.3007766360   -1.8575769218