25

 C    0.1760010848    1.5160390160   -0.2096478929
 C    0.0034495665    0.0078159044   -0.0057174186
 C   -1.4574964446   -0.4504392415    0.0599520167
 C   -2.2698159304   -0.2045776914   -1.2337161577
 C   -3.3766102560   -1.2632842985   -1.1731622238
 C   -2.6335791709   -2.5258208671   -0.6889381016
 C   -3.5469804870   -3.6204977637   -0.1405471599
 O   -1.8334569321   -3.0517700017   -1.7616068568
 C   -1.6175065463   -1.9745396604    0.3395969047
 H    1.2343050210    1.7952696723   -0.2236858534
 H   -0.2656537752    1.8476972990   -1.1550691945
 H   -0.3056988562    2.0818217883    0.5962942120
 H    0.5048625651   -0.5365799595   -0.8172817996
 H    0.5121413160   -0.2910688471    0.9202417316
 H   -1.9478722123    0.1020340866    0.8734973629
 H   -2.6530521820    0.8163351030   -1.3118332629
 H   -1.6381717583   -0.3946687167   -2.1087295217
 H   -4.1399709684   -0.9783035990   -0.4375099578
 H   -3.8897419291   -1.4276282367   -2.1277811096
 H   -4.2476288966   -3.9669926225   -0.9105442784
 H   -2.9562826685   -4.4807227142    0.1886955486
 H   -4.1380542297   -3.2591131087    0.7071155734
 H   -2.4341159398   -3.3374038976   -2.4589063950
 H   -0.6733894913   -2.5130007417    0.2173591317
 H   -1.9647482987   -2.1544607616    1.3610886828