17

 C    0.3597419751    1.3711786732    0.0569934809
 N    0.0645696119   -0.0440883147    0.0072734453
 N    0.1919262760   -0.7532324110   -1.1457841238
 C   -0.1694036326   -1.9677689587   -0.7690178287
 N   -0.5152418056   -2.0943821889    0.5394143834
 C   -0.3534519840   -0.8623320324    0.9981806283
 N   -0.5685940929   -0.3725591432    2.2904688478
 C   -1.2555739545   -1.2822478817    3.2179279562
 C    0.1956787918   -1.0340203796    3.3762041727
 H    1.4335522722    1.5449797528   -0.0578578363
 H   -0.1703820417    1.8821254026   -0.7495059747
 H    0.0269570903    1.7488939797    1.0238690804
 H   -0.1877386087   -2.7930495265   -1.4655576113
 H   -1.9657648402   -0.7921767190    3.8765164375
 H   -1.5559740588   -2.2443497090    2.8168437876
 H    0.8708964000   -1.8307382174    3.0790450652
 H    0.5627313017   -0.3613659760    4.1447988394