19

 C    0.0108898844    1.5322464826    0.0200653038
 C   -0.0688777925    0.0216463368    0.0199006993
 C   -0.8811527534   -0.6962450389    1.0353590758
 N    0.5804982422   -0.6484795098    1.1628755122
 C    1.3007547392   -1.9138529971    0.9321414800
 C    1.4994665213   -2.2504186323   -0.5468282673
 O    0.3132515343   -2.0087474007   -1.2862749287
 C    0.0636525256   -0.6191846075   -1.3551965909
 H    0.9653915684    1.8760006800   -0.3946735445
 H   -0.7944833088    1.9678699384   -0.5832697843
 H   -0.0725167865    1.9179915451    1.0386869491
 H   -1.4356216747   -0.1430606044    1.7902989982
 H   -1.3279655044   -1.6420742713    0.7348641447
 H    2.2807276556   -1.8456797063    1.4209642514
 H    0.7514470645   -2.7235651698    1.4255052210
 H    2.3245133419   -1.6539515835   -0.9707997271
 H    1.7491558250   -3.3078054066   -0.6739939299
 H   -0.8598055360   -0.4897661539   -1.9296237378
 H    0.8774476439   -0.1203278708   -1.9108942150