18

 C   -0.0578326481    1.5553895963    0.0428373229
 C    0.0440445033    0.0434044066   -0.0555906568
 O   -1.1783673412   -0.5569298121   -0.4335072990
 C    1.1706659136   -0.5778903019   -0.9502543499
 C    1.7266134029   -1.2931186088    0.2823927482
 N    2.0904234131   -0.2384037693    1.2482643313
 C    0.6728667528   -0.6980115034    1.1655302465
 C   -0.0416294406   -1.2211643930    2.2732944386
 C   -0.6966078236   -1.6274860671    3.1992692715
 H    0.8989119960    1.9843360594    0.3484052762
 H   -0.3499531781    1.9763130314   -0.9241518457
 H   -0.8160546349    1.8413458268    0.7818932067
 H   -1.8122043570   -0.4053513699    0.2777865188
 H    0.7273135576   -1.2519190583   -1.6836590028
 H    1.8582408598    0.1205050723   -1.4316274123
 H    2.1748974398   -2.2772863074    0.3381685742
 H    2.4975218617   -0.6915141041    2.0667509733
 H   -1.2615256770   -2.0021151077    4.0166593683