15

 N    0.0793817455    1.3122701426    0.1244910401
 C   -0.0338326471    0.0492814976    0.1002797244
 N   -1.2344199184   -0.6353640161   -0.0086507519
 C   -1.2632079634   -2.0881463465   -0.1548042675
 C   -2.7515717519   -2.4168512567    0.0594068544
 N   -3.3738443059   -1.1739573961   -0.3628958809
 C   -2.5260476083   -0.0855132907   -0.1801117726
 O   -2.8429193455    1.0735791252   -0.1840679237
 H    1.0615585785    1.5623102550    0.2268800618
 H    0.8017037403   -0.6604615949    0.1746521030
 H   -0.9376544173   -2.3892067918   -1.1592602347
 H   -0.6192141216   -2.5786646431    0.5795037240
 H   -3.0730133335   -3.2655680427   -0.5496410413
 H   -2.9550033241   -2.6500325975    1.1146149927
 H   -4.3496762373   -0.9965436143   -0.1832445479