21

 C    0.3378283544    1.6010582069   -0.0045929303
 C   -0.0674313365    0.1285432722    0.0102948348
 O   -1.4862983561    0.0839831533    0.0678845635
 C    0.3754566506   -0.5660968099   -1.2974154607
 O   -0.2716051784   -1.8227432717   -1.4356543082
 C    0.3940400661   -2.9530204127   -0.8993238093
 C    1.0579637409   -2.7215000584    0.4665560934
 O    0.2621567293   -1.9489948670    1.3392824772
 C    0.5165511040   -0.5551720443    1.2618036294
 H    1.4212982103    1.7163148527   -0.1098136031
 H   -0.1527053496    2.1129946929   -0.8366675024
 H    0.0261461119    2.0916485757    0.9221270190
 H   -1.7223401983   -0.8295079204   -0.1409461644
 H    0.0350107974    0.0406125906   -2.1424927242
 H    1.4686044116   -0.6585323317   -1.3634838980
 H   -0.3821475054   -3.7196967504   -0.8125452123
 H    1.1589201029   -3.3266063046   -1.6003841516
 H    1.2221297377   -3.6983771730    0.9374203423
 H    2.0460420632   -2.2527718872    0.3434473939
 H    1.6016608656   -0.3684822061    1.3265957117
 H    0.0359484084   -0.1148706370    2.1399920694