21

 C    0.0464360969    1.4921924989    0.0203108583
 C   -0.0850127108   -0.0171323778   -0.0043759914
 C   -0.8731897726   -0.7134534941    1.0498841417
 N    0.5911209502   -0.7091164520    1.1087721554
 C    1.2925523868   -1.9588088500    0.7497054176
 C    2.1769520192   -1.7389687952   -0.4680513845
 N    1.8116942944   -2.4984930783   -1.6821767023
 C    1.5203702492   -1.0540874926   -1.6114837755
 C    0.0631511046   -0.6648165474   -1.3865507438
 H    0.9870793214    1.8113945361   -0.4439480097
 H   -0.7758255053    1.9652709278   -0.5291307147
 H    0.0385290263    1.8620981025    1.0483788959
 H   -1.3778230315   -0.1492412710    1.8313581522
 H   -1.3675706329   -1.6459765894    0.7782402117
 H    1.8870507707   -2.2666278274    1.6156239047
 H    0.5958761610   -2.7766309834    0.5220326969
 H    3.2305393320   -1.5467564226   -0.2866724705
 H    2.6414514289   -2.6539418576   -2.2497228889
 H    2.1237761945   -0.3877945282   -2.2219976195
 H   -0.5469010294   -1.5683304091   -1.4638967245
 H   -0.2839461138    0.0247947009   -2.1615677589