19

 O   -0.0571004370    1.4611535152    0.0752648530
 C    0.0224401449    0.0444629563    0.0952638443
 C   -1.3452222032   -0.5652589411    0.0080990755
 O   -2.1926822563   -0.2747080553    1.1345425725
 C   -3.0448721491   -1.3248147154    0.5792802465
 C   -3.6140749256   -0.6096955091   -0.6606924397
 C   -2.2317653584   -0.4856407957   -1.3347670969
 C   -1.8766992626   -1.9772255006   -1.5762801855
 C   -1.7831488125   -2.0479493863   -0.0430221830
 H   -0.6733803685    1.7104889742    0.7735965134
 H    0.6272820991   -0.2513694060   -0.7681288714
 H    0.5282357402   -0.3181354839    1.0035657891
 H   -3.7066130599   -1.7843558153    1.3116215049
 H   -4.3212667859   -1.2002399942   -1.2499095214
 H   -4.0723023718    0.3391099326   -0.3754425550
 H   -2.0737261357    0.2823182858   -2.0885719766
 H   -2.6132074118   -2.5938924476   -2.0990424413
 H   -0.8929971219   -2.1160117134   -2.0333029327
 H   -1.3080380541   -2.8446817903    0.5273184142