21

 C   -0.0121698334    1.5166129025    0.2340701101
 C    1.5219280805    1.5165466137   -0.0878646279
 C    1.2977498556    0.2027246586   -0.8611408346
 C    2.0608573909   -1.1083779512   -0.9401802032
 O    1.1245155906   -1.9344728951   -1.6800805189
 C    0.0764788418   -1.0722368378   -2.1855963234
 C   -0.9459472013   -0.7837377180   -1.0551677837
 C   -0.0269238587   -0.0126501736   -0.0763901951
 C    0.7832127373    0.2770330649   -2.3181959517
 H   -0.3082230939    1.8202731851    1.2405362275
 H   -0.5860626319    2.1052845475   -0.4864138725
 H    1.9343784319    2.3662564506   -0.6377450967
 H    2.1152135394    1.3659724848    0.8192354124
 H    3.0162766444   -1.0519669219   -1.4816987218
 H    2.2389391510   -1.5643802739    0.0408144550
 H   -0.3304751166   -1.5382053609   -3.0843444976
 H   -1.7900784367   -0.1929955996   -1.4298515933
 H   -1.3414575711   -1.7070895280   -0.6252917158
 H    0.1443198510   -0.5731960193    0.8470686847
 H    0.1033409192    1.1085411835   -2.5144598559
 H    1.5872784898    0.2796708181   -3.0592585277