18

 C   -0.1144859977    1.5055077950   -0.0331627648
 C    0.0875647585    0.0307382698    0.0208546427
 C    0.6621409280   -0.9766256685   -0.8938905845
 C    1.3385353531   -1.7939674037    0.2571786261
 C    0.8599948813   -3.2177019319    0.3077911579
 C   -0.4525098236   -3.2072194274    0.5822431799
 C   -0.8787645498   -1.7790382357    0.7318754799
 C    0.3665197999   -0.9865454720    1.1809331709
 N   -0.8076938163   -0.9845348955   -0.6070020810
 H    0.7980882071    2.0415936863    0.2511462845
 H   -0.3901708761    1.8120008835   -1.0468183816
 H   -0.9150767755    1.8232135384    0.6448617730
 H    0.9611306462   -0.9120243315   -1.9324124306
 H    2.4042784596   -1.5973325652    0.3682514344
 H    1.4626983899   -4.0816826522    0.0543274402
 H   -1.1226753298   -4.0577595520    0.5921505608
 H   -1.8348223936   -1.5707376583    1.2095766021
 H    0.6106544489   -0.7929227091    2.2252455000