23

 C   -1.6998289458    0.7814438477   -1.3697001281
 C   -0.7879091554   -0.2832579412   -0.7978564231
 C    0.6214005917   -0.5635363513   -1.3233181851
 C    1.2600223090    0.1887867551   -2.4712583678
 C    0.9439741339   -0.4450804441   -3.8226090530
 O    1.6050164146    0.3146644918   -4.8237346450
 C    0.4314069858    0.0153282963    0.0515632933
 C    0.8496718455    1.4248087683    0.4067669078
 O    0.7188867102   -0.9148798827    1.0732066091
 H   -1.1561637592    1.6638574440   -1.7158787617
 H   -2.2668472487    0.3933552757   -2.2235301587
 H   -2.4264521212    1.1196536718   -0.6219612614
 H   -1.3121779094   -1.1801485726   -0.4765417869
 H    0.8937311263   -1.6161102413   -1.2904508396
 H    0.9386291794    1.2341098404   -2.5055519069
 H    2.3499751205    0.2067217886   -2.3474105749
 H    1.2834397651   -1.4938379833   -3.8274151168
 H   -0.1462089402   -0.4560705305   -3.9821131988
 H    1.4199194983   -0.0866716252   -5.6775523435
 H    0.6720013423    2.1356720767   -0.4025952532
 H    0.2943037546    1.7804555774    1.2840306720
 H    1.9155510910    1.4473852488    0.6548055443
 H    0.1550976817   -0.7048033005    1.8265022980