16

 O    0.2965125326    0.4103269537    0.9345677783
 C   -0.1473395467    0.3447278987   -0.4105390052
 C   -1.5053274440   -0.3609345404   -0.5443013339
 O   -1.9669405093   -0.3577581155   -1.8705319879
 C   -1.4426947548   -1.8017265267    0.0731029364
 C   -2.7681912661   -2.3731204981    0.2917220525
 C   -3.8671525014   -2.8142987885    0.4853111364
 C   -0.6292035967   -2.6543416636   -0.8069668422
 N    0.0202432553   -3.2603848125   -1.5462764272
 H   -0.2159989234    1.0859753275    1.3900427000
 H   -0.2289532373    1.3360187540   -0.8748664431
 H    0.6174002619   -0.2172200640   -0.9596038119
 H   -2.2560754602    0.1868457523    0.0358726768
 H   -1.3552352662   -0.8739899997   -2.4114589604
 H   -0.9123001054   -1.7012021841    1.0290844237
 H   -4.8379484882   -3.2128822932    0.6500810477