18

 C    0.0616126001    1.7308436892   -0.0005498184
 C    0.1948913129    0.2165888841   -0.0199961165
 O    1.0800913672   -0.1668710642   -1.1092062139
 C    2.1318833534   -0.8230789918   -0.5570784685
 C    3.1957928745   -1.2303795197   -1.5175014181
 N    2.1281974470   -1.0363924317    0.6976953940
 C    0.8772168420   -0.4729228848    1.2125053470
 C    1.1387047053    0.4011391660    2.4339855224
 O    0.3097721901    1.1036825142    2.9531607415
 H    1.0292260836    2.2095907060    0.1786339353
 H   -0.3217906655    2.0781212401   -0.9635705010
 H   -0.6226026134    2.0397363547    0.7919637511
 H   -0.7757007212   -0.2406623603   -0.2291048844
 H    3.5838550386   -0.3543291049   -2.0459835890
 H    4.0037260317   -1.7279522198   -0.9825858309
 H    2.7825195630   -1.9077807314   -2.2713815894
 H    0.2398770577   -1.2895817780    1.5832207480
 H    2.1717887130    0.3103683322    2.8332042609