17

 O    0.2014737908   -0.0384697885   -0.2513252824
 C    0.0861459298    1.1510606875   -0.0793418691
 C   -1.2308992922    1.9336372245    0.0255252545
 C   -0.8282864252    3.4158986943    0.0189173214
 C   -1.4122331334    4.3599686884   -1.0720616732
 C   -2.0427964492    5.1185755734    0.1087268732
 O   -1.4545325414    4.2091532537    1.0633217156
 C    0.6749085972    3.3798346481    0.1417763913
 C    1.1810220515    2.1447815519    0.0684542534
 H   -1.9199370839    1.6472701750   -0.7724895426
 H   -1.7119039013    1.6988470558    0.9804466422
 H   -0.6681719950    4.9168473140   -1.6441365117
 H   -2.1101916641    3.8824927391   -1.7609553933
 H   -1.6935065154    6.1470951767    0.2554363496
 H   -3.1379137968    5.1063343192    0.1565643829
 H    1.2386530012    4.2987552312    0.2650718936
 H    2.2245138073    1.8576591456    0.1022261644