17

 O    0.2129338256    1.2732868529   -0.4095637418
 C    0.0810924330   -0.0588761024   -0.0002335412
 C    0.2092651197   -0.3484654843    1.5270059854
 C   -1.2821765400   -0.6836544469    1.5818903520
 O   -2.0953407644    0.5132902362    1.6495385962
 C   -2.4594191698    0.4123172275    0.2509862540
 C   -1.3967283606   -0.6688689457    0.0151721824
 C   -1.6634399777   -1.7951151037   -0.8291078036
 C   -1.8668480647   -2.7426417610   -1.5429049793
 H   -0.1837860742    1.8341863763    0.2667983934
 H    0.7494590183   -0.6455260567   -0.6319958392
 H    0.8446670516   -1.2149324505    1.7323619334
 H    0.5303182778    0.4888017451    2.1524452554
 H   -1.6539540226   -1.4863334110    2.2229338427
 H   -3.4849490598    0.0461465144    0.1255076094
 H   -2.3316224805    1.3551081602   -0.2906279460
 H   -2.0543742317   -3.5771096904   -2.1721852933