17

 O    0.0120694886    0.0438702351    0.3114504252
 C    0.0640503403    1.2465576889    0.1610750725
 N   -1.0243242859    2.1100133602    0.1812812124
 C   -0.6662610976    3.4649932676   -0.1637249772
 C    0.8438203199    3.3793722147   -0.2529992739
 C    1.2474998587    2.1110798720   -0.0669043986
 N    1.5737559267    4.5051458051   -0.5902182350
 C    1.7105286315    5.6395791538    0.3188448759
 C    2.8785735313    4.7671585741   -0.0132708504
 H   -1.9616927857    1.7505798543    0.1194369069
 H   -1.0875823339    3.7919472793   -1.1250494049
 H   -0.9848169072    4.1922495387    0.5969465960
 H    2.2544782686    1.7232609232   -0.0934881834
 H    1.6106938060    6.6207291950   -0.1350663161
 H    1.2883892514    5.5428308806    1.3163049815
 H    3.2281849936    4.0885337840    0.7611107446
 H    3.6384223537    5.1145172334   -0.7064547155