16

 N   -0.1547815411    1.3465495120    0.1477333461
 C   -0.0208175421    0.1149248190   -0.1067070460
 C   -1.1614801251   -0.8636532771    0.0955327357
 N   -1.2706577085   -1.9343126869   -0.9002845766
 C   -0.8552028623   -1.6166296798   -2.2732441185
 C    0.0187205762   -2.4242297484   -1.3812439355
 C    1.2550055277   -1.8106978541   -0.7641193509
 O    1.1469181732   -0.3942864266   -0.6039857787
 H    0.7229769500    1.8417557364   -0.0267417170
 H   -1.0488742120   -1.3443350342    1.0759909072
 H   -2.0880689829   -0.2879592084    0.1234967369
 H   -1.4364285177   -2.1060660297   -3.0486980765
 H   -0.5468860955   -0.6007848840   -2.5052607364
 H    0.0841545158   -3.5025215286   -1.5199985554
 H    1.4537702401   -2.2778728632    0.2114779125
 H    2.1353407343   -1.9695622065   -1.3933337069