16

 C    0.5121516828    1.3425745583    0.1186696840
 C   -0.2834571282    0.0582057464   -0.0317728565
 O   -0.9989453600   -0.3594914619    0.8566168575
 C   -0.1347092520   -0.6800926962   -1.3069660892
 C   -1.1061892652   -1.7901708981   -1.6956947295
 C    0.3126963047   -2.1451122404   -1.4880703758
 O    1.1157237232   -1.8335581651   -2.6182350111
 C    0.8055475142   -0.4193931136   -2.4828678827
 H    1.5872924075    1.1295135707    0.1103780947
 H    0.3143637089    2.0248060418   -0.7159248196
 H    0.2479769923    1.8229862316    1.0610641009
 H   -1.7801549025   -2.0456456987   -0.8852497594
 H   -1.5190987072   -1.8051708062   -2.7002402982
 H    0.6966452614   -2.8504305040   -0.7599712214
 H    0.3665806556   -0.0011369610   -3.3961113672
 H    1.7090776644    0.1391828862   -2.2163518165