17

 O   -0.0313428655    0.7613538302    1.4924374927
 C   -0.0476412737    1.4079884167    0.4608265085
 C   -1.4109242454    1.8631466767   -0.0871298712
 N   -1.5691182824    2.2511455145   -1.4733918358
 C   -0.7978848448    3.4038104494   -1.9074905629
 C    0.6606596658    3.1307361904   -2.2986176914
 C    1.5348771957    2.4297476364   -1.3021106699
 C    1.2433422816    1.7363619444   -0.1922795674
 H   -2.1096570820    1.0539691276    0.1475435749
 H   -1.7166221404    2.7095302962    0.5449827221
 H   -1.4339124453    1.4622012232   -2.0953763200
 H   -1.2971158049    3.8646967726   -2.7695683155
 H   -0.8290208298    4.1444665369   -1.0991699773
 H    0.6815733108    2.5364361980   -3.2270825383
 H    1.1414920042    4.0805405973   -2.5732515787
 H    2.5938523592    2.4844424354   -1.5550049125
 H    2.0701953570    1.3044512940    0.3666840125