18

 N    0.0862863438    1.1171618047   -0.6557737647
 C   -0.0457885021    0.0309287466    0.1590659768
 O    0.8353305424   -0.3325815313    0.9186545342
 C   -1.3636363494   -0.6805764825    0.0460139259
 C   -2.6016128986   -0.3972255704   -0.8345364138
 C   -2.9855355408   -1.6467302307   -0.0196059977
 C   -1.5374056615   -2.2426538408   -0.0852658239
 C   -1.4720766458   -2.4626930713    1.4388840809
 C   -2.2478599953   -1.1418520840    1.2678206218
 H    0.9474751935    1.6380310831   -0.6276246528
 H   -0.6447135329    1.4099137677   -1.2790502349
 H   -3.1624653629    0.5195218613   -0.6202459605
 H   -2.4824965262   -0.5340586535   -1.9152773574
 H   -3.9134742371   -2.2193005245   -0.0410298846
 H   -1.1262147274   -2.8469956403   -0.8956481193
 H   -2.0433108886   -3.3112315575    1.8292646659
 H   -0.4862382878   -2.3915540977    1.8986506567
 H   -2.6593815133   -0.4714883988    2.0243158472