11

 N    0.1187130049    1.4107761997    0.0118990104
 C   -0.0566630139    0.0573833800    0.0033290418
 N   -1.2209271015   -0.4556684072   -0.1570559284
 O   -1.2692198765   -1.8647610433   -0.3177397174
 C   -0.1869231519   -2.6579370564   -0.1591560839
 O   -0.2712169619   -3.8433848613   -0.2691089207
 C    1.1459635370   -1.9752907730    0.1527417401
 O    2.1581667979   -2.5533156942    0.3691060933
 O    1.1280786474   -0.5965778884    0.1469087118
 H    0.8703346558    1.7498419746    0.5937438639
 H   -0.7369021674    1.9437765497    0.0550878991