15

 C    0.1147010333   -0.6424806198    0.7892230929
 C   -0.0266929375    0.3436017894    0.1152432996
 C   -0.1340111756    1.5585120140   -0.7025230342
 N    1.1009922353    2.3395829142   -0.8290530799
 C    1.6107640520    2.8134053956    0.4607907034
 C    2.8524029859    3.5546279337    0.2958886056
 C    3.8941551866    4.1512779597    0.1649569032
 C    5.0700310363    4.8289886181    0.0162900849
 N    6.0713599095    5.4042151189   -0.1097871594
 H    0.2221157034   -1.5192635815    1.3794168402
 H   -0.4641553472    1.2946570365   -1.7131113391
 H   -0.9098562962    2.2139313817   -0.2867667782
 H    1.8132318042    1.7699210511   -1.2757134577
 H    0.8560646352    3.4787345306    0.9027177751
 H    1.7762847746    2.0033499779    1.1929200436