18

 O   -0.0942145427    1.3833223980    0.0938273558
 C   -0.0367925161   -0.0050597005    0.0603569295
 C    0.8482023058   -0.7466099241    1.0592246254
 C    0.1941312379   -1.6805636059    2.0109196915
 N    0.6292076764   -2.1550119139    0.6824321054
 C   -0.3937102044   -1.9687267652   -0.3723370420
 C   -1.3760616596   -0.7752659511   -0.0869309878
 C   -1.3930080284   -0.4637903659   -1.6019949602
 C    0.0776546193   -0.8195202776   -1.3049029089
 H    0.8008109049    1.7298453669    0.0128181126
 H    1.8729393645   -0.4125504149    1.2107313549
 H    0.7712211082   -2.0864140046    2.8369954401
 H   -0.8675361063   -1.5733095816    2.2106656521
 H   -0.7788323971   -2.8966248449   -0.7922630675
 H   -2.2208731371   -0.7482602131    0.6016963192
 H   -1.9478839335   -1.1586953993   -2.2377948806
 H   -1.5956407105    0.5736795422   -1.8709519557
 H    0.9281109687   -0.8463001646   -1.9882028938