25

 C    0.0911785095    1.5202360678    0.2277219254
 C   -0.0472780097    0.0036981902    0.0520758137
 C    0.6314682797   -0.5088206289   -1.2128186715
 C    2.1894276886   -0.4959518216   -1.3092062645
 C    2.1675231869   -1.9293262017   -1.9329314516
 C    2.7044237679   -2.0645615414   -3.3407158644
 C    2.4818143130   -3.0464339265   -0.9056181796
 C    1.0033203761   -3.0121971974   -0.4166100832
 C    0.6360548122   -2.0200956867   -1.5602674331
 H    1.1440264560    1.8187992868    0.2787637365
 H   -0.3631766367    2.0583520063   -0.6118500931
 H   -0.3959249055    1.8630290267    1.1459963188
 H    0.3741366506   -0.4996627243    0.9312177157
 H   -1.1114721877   -0.2674834543    0.0261269748
 H    0.2187990339    0.0354871161   -2.0718091946
 H    2.6180964175    0.2835536938   -1.9448570751
 H    2.6922114736   -0.4539852880   -0.3366229603
 H    3.7946728120   -1.9391832272   -3.3593603248
 H    2.4772439326   -3.0501538337   -3.7631025612
 H    2.2764140760   -1.3081617729   -4.0091147507
 H    2.7381336351   -3.9946745031   -1.3888607160
 H    3.2567971129   -2.8217131767   -0.1656766609
 H    0.4874337090   -3.9730510184   -0.4783921479
 H    0.8600047700   -2.6258123306    0.5955543988
 H   -0.1251735436   -2.3716865644   -2.2607894111