20

 C    0.0045787670    1.5274849956    0.1264331826
 C   -0.0139210400    0.0298937783   -0.0174507245
 C   -1.1308977136   -0.7059319320    0.0662139952
 C   -1.1853849362   -2.2160445746    0.0313275481
 C   -0.7762785514   -2.8365089293   -1.3225047879
 C    0.4461787171   -2.1221765631   -1.9211741491
 N    1.4334997597   -1.7260823541   -0.9215771150
 C    1.3447334131   -0.6040264758   -0.1350650269
 O    2.3168272826   -0.1505067418    0.4480699464
 H    0.6719720674    1.8126484943    0.9447908276
 H    0.3959381067    2.0114140123   -0.7765112121
 H   -0.9964881607    1.9197054574    0.3218785901
 H   -2.0744975468   -0.1830968624    0.2109278873
 H   -0.5084198423   -2.6109360379    0.7972555856
 H   -2.1887637033   -2.5583690069    0.2998864814
 H   -0.5672271505   -3.9012359323   -1.1693984683
 H   -1.5983735930   -2.7727046628   -2.0449988553
 H    0.9479658985   -2.7678843618   -2.6467018574
 H    0.1088681280   -1.2339973309   -2.4667236705
 H    2.3742086673   -2.0823859923   -1.0032933373