15

 C   -0.1668324914    1.3679294246   -0.1751133213
 O   -0.1632317261   -0.0545423428   -0.1652332096
 C    0.7113015863   -0.6230761833   -1.0762013507
 C    0.6111358346   -2.1469166752   -0.9756385623
 O   -0.2429233346   -2.4997374428   -2.0639665274
 C   -0.3573457664   -1.4402657863   -2.9135495244
 N   -0.9728789992   -1.4037298178   -4.0068464973
 O    0.3232902072   -0.3689063106   -2.4261212648
 H    0.8382632685    1.7652245536    0.0279511469
 H   -0.5179580032    1.7578205770   -1.1360729274
 H   -0.8449881739    1.6846655237    0.6186492937
 H    1.7248960863   -0.2175128683   -0.9622619156
 H    1.5836719188   -2.6347427787   -1.0960094993
 H    0.1476812649   -2.4509973117   -0.0363701318
 H   -1.3794325918   -2.3137783714   -4.2100373788