21

 O   -0.0217731978    1.4154373010   -0.0244687132
 C    0.0896590958    0.0036938719    0.0466720160
 C    0.5964367356   -0.5612782567    1.4142973921
 C   -0.6372543279   -0.5019364123    2.3999877106
 C   -1.2131310576   -1.4871301310    1.3534514586
 C   -2.4349164357   -2.2976154377    0.8729838846
 C   -2.0666048146   -1.8049889503   -0.5802337652
 C   -1.3271507317   -0.6118830628    0.1018843555
 C    0.2305564804   -2.0528831158    1.2226279847
 H    0.8631912917    1.7871426100    0.0466569346
 H    0.7182922677   -0.3768054040   -0.7722726799
 H    1.5911337964   -0.2500310456    1.7417390005
 H   -0.3796834477   -0.9344834684    3.3704681933
 H   -1.1513329321    0.4542789779    2.5256045210
 H   -2.4415285292   -3.3731408890    1.0676674571
 H   -3.3868292224   -1.8696623142    1.2014215599
 H   -1.3986973760   -2.5044718455   -1.0882757730
 H   -2.8939934678   -1.5587480823   -1.2490125002
 H   -2.0395118194    0.2052631466    0.2549915085
 H    0.5296466919   -2.5414103017    0.2899787759
 H    0.5089642704   -2.6771785300    2.0758095887