16

 C    0.4273535010    1.4471806623   -0.0507183629
 C    0.1222191009   -0.0177956442   -0.0084722863
 C   -0.0052440422   -0.9100360963   -1.0320405857
 C    0.0835957210   -0.8161901652   -2.5298326111
 C    1.2713641978   -0.1180732611   -3.0148384087
 C    2.2429990414    0.4548761525   -3.4276742329
 O   -0.3046750150   -2.1334947765   -0.5517976952
 N   -0.3838301848   -2.0765540855    0.8346190220
 C   -0.1298918541   -0.8284327499    1.1363210119
 H    1.1939082628    1.7111713732    0.6851096298
 H    0.7945609455    1.7442114058   -1.0350665058
 H   -0.4601633142    2.0493625212    0.1757681140
 H    0.0637490529   -1.8372206203   -2.9272327251
 H   -0.8149951205   -0.3203683460   -2.9220558010
 H    3.1069190111    0.9539333939   -3.7916542143
 H   -0.1297323337   -0.5312353138    2.1766368216