12

 O   -0.0065409695   -0.0123848793   -0.0202385315
 C   -0.0354298518    1.1742330794    0.0438623679
 C   -1.1260285051    2.2296457777    0.2594428151
 C   -0.0093006745    3.2731509111    0.5561849994
 C    1.0825655525    2.2765905937    0.0343960272
 C    2.2754264305    2.0563145041    0.8242574624
 N    3.2096324908    1.8756767557    1.4811875078
 H   -1.6829740248    2.4253626504   -0.6626640814
 H   -1.8408721625    2.0066049020    1.0543946901
 H   -0.0670344167    4.2161348240    0.0141559679
 H    0.1051351068    3.4752284249    1.6213678839
 H    1.3583277344    2.4883114765   -1.0049586989