17

 C   -0.0694221449    1.4993201034    0.0326717942
 C   -0.0612943741    0.0026755705   -0.0759632436
 N   -0.0168487527   -0.5864995966   -1.1970556535
 C    0.0219476190   -2.0421325600   -1.2439858362
 C    0.3434710114   -2.6822337845    0.0782348082
 C   -0.2212513658   -1.9798401470    1.2800167865
 O   -0.0987171899   -0.5552970428    1.1679324096
 N    1.0563948151   -3.7385942092    0.0948306871
 O    1.2379570419   -4.2437864120    1.3932623278
 H    0.7809897628    1.8382552499    0.6327360033
 H   -0.0158824675    1.9374480302   -0.9628464378
 H   -0.9783850175    1.8388639538    0.5393459140
 H   -0.9574619152   -2.3995267633   -1.5977481534
 H    0.7505537324   -2.3616013900   -1.9948922265
 H   -1.2853183896   -2.2297299960    1.3973802914
 H    0.3028767774   -2.2703625916    2.1897415891
 H    1.8365422573   -4.9825777247    1.2404037098