15

 C    0.2875347201    1.4717472658   -0.1325002356
 O   -0.1830559154    0.2260904315   -0.6712999972
 C    0.7569385543   -0.7030442581   -0.8897473898
 O    1.9338455870   -0.5219292294   -0.6639135778
 C    0.1491900772   -1.9832422458   -1.4210780490
 C    0.9226996975   -2.6955707448   -2.5474873740
 N    2.2731200464   -2.6879433653   -2.4146139950
 O    0.3237814283   -3.2666575175   -3.4359066057
 H    1.0073620102    1.9342151430   -0.8116635995
 H   -0.5974999882    2.0980964690   -0.0260030858
 H    0.7663616032    1.3137923990    0.8367969243
 H    0.0963674814   -2.6821652017   -0.5760222991
 H   -0.8673321657   -1.8124242871   -1.7708966067
 H    2.7044125428   -2.0547975375   -1.7555264247
 H    2.8148294108   -3.0881416512   -3.1632738245