19

 C    0.2929331793    1.3851074536    0.0354079132
 O    0.2555053936   -0.0309108254    0.0221023616
 C    0.4590591882   -0.5854189715   -1.2482023424
 O    1.7499515502   -0.3129069384   -1.7575040126
 C    2.6632455895   -1.3089340082   -1.2857847172
 C    1.8301901708   -2.5880299477   -1.1152703156
 O    1.6853561768   -3.0452678770    0.2459798486
 C    0.2631023768   -2.7775496971    0.2267651174
 C    0.3606427728   -2.1211596702   -1.1648779048
 H    1.2647499199    1.7635033771   -0.3002647292
 H   -0.4913267048    1.8087465762   -0.6103506079
 H    0.1136221793    1.6989689829    1.0657351843
 H   -0.2428842867   -0.1362806077   -1.9654031435
 H    3.4567313152   -1.3954783093   -2.0324724998
 H    3.1014546482   -1.0318141656   -0.3190544699
 H    2.1380089791   -3.4015479288   -1.7805605433
 H   -0.3173135718   -3.7079888074    0.2373539510
 H   -0.0498645684   -2.1286978151    1.0466505815
 H   -0.2804687081   -2.5240448601   -1.9476773812