16

 C   -0.1977141377    1.3978030170    0.3541970277
 C    0.0536255985   -0.0729563921    0.1188198539
 C    1.3740445907   -0.5597022645   -0.4300546068
 C    0.9942899821   -0.8670735447    0.9954881381
 N    1.7263453865   -0.2189712173    2.0451744675
 C    1.1704608640    0.0741312241    3.2546238310
 O    0.0019446686   -0.0709586004    3.5380369467
 H    0.7147707444    1.9100967601    0.6717136584
 H   -0.5533986781    1.8828563418   -0.5609253642
 H   -0.9488973507    1.5408929061    1.1364948828
 H   -0.8211658251   -0.6327777676   -0.1999743863
 H    1.3947096081   -1.3761591607   -1.1429837111
 H    2.1468988991    0.1878396520   -0.5834294926
 H    0.6933470999   -1.8858456061    1.2265731950
 H    2.7298438998   -0.1594748942    1.9652854069
 H    1.9227846800    0.4792776267    3.9624714030