19

 O    0.1000374580    1.3648373042   -0.1480432258
 C    0.0594549023   -0.0331189184   -0.0114727033
 C    0.7079744242   -0.5960947901    1.2624697946
 C    0.1104035748   -2.0033369577    1.3630213847
 C   -1.3756337946   -1.7908542777    1.0143950955
 C   -1.4235480242   -0.5887750174    0.0279840946
 O   -2.2757790025    0.4113603573    0.6091418358
 C   -1.9022908109   -0.9445294916   -1.3049288037
 C   -2.2878055432   -1.2062886269   -2.4137826100
 H   -0.4729648017    1.7110829651    0.5483677308
 H    0.5628429502   -0.4400231356   -0.8936490856
 H    1.7993857914   -0.5738111261    1.2161297099
 H    0.3972523598    0.0120186201    2.1222923318
 H    0.5852563536   -2.6647990708    0.6286410906
 H    0.2441495287   -2.4636810811    2.3451053398
 H   -1.8566454385   -2.6795923321    0.6035903732
 H   -1.9395642700   -1.4861362903    1.9006120192
 H   -2.5196643877    1.0180688825   -0.0998246757
 H   -2.6299858694   -1.4461130736   -3.3902884066