18

 C   -0.7918816639    1.4962089308    0.3817841041
 C   -0.2571334659    0.1111332861    0.1683341615
 C    0.2893025376   -0.3969539448   -0.9946816234
 C    0.4865298466    0.2417785955   -2.3451236586
 C    1.4979879134   -0.4271728264   -3.1600778176
 C    2.3140799296   -1.0149853484   -3.8190647746
 N    0.6220278986   -1.7092619900   -0.7670230910
 C    0.3131498860   -2.0533155619    0.5222768594
 C   -0.2375832796   -0.9478429468    1.1251671910
 H   -0.3595117472    2.2136098809   -0.3239397984
 H   -1.8818762272    1.5455777410    0.2617893437
 H   -0.5653670282    1.8552759346    1.3910915252
 H   -0.4575076877    0.2612949628   -2.9104888179
 H    0.7672268567    1.2937408403   -2.2090431640
 H    3.0450592872   -1.5049978922   -4.4134993650
 H    1.0988269027   -2.2851590799   -1.4405986226
 H    0.5216591474   -3.0410946564    0.9003186329
 H   -0.5896317962   -0.8908705853    2.1446673951