20

 C   -1.4264284050    0.2772892567    0.5662205829
 C   -0.0009424596    0.0417068495    0.1102260259
 O    0.9611467036    0.4180472514    0.7429093495
 C    0.1446031220   -0.7455504327   -1.1824461712
 C    1.5533640527   -1.1291095763   -1.6795855282
 C    1.1246053017   -2.5906101810   -1.5002454341
 C    1.3728330325   -3.6827640781   -2.4965503953
 C    0.6962718788   -2.8217647336   -0.1093099039
 N   -0.2826942056   -2.2018985349   -1.0438384934
 H   -1.9154183928    0.9875905326   -0.1113676366
 H   -1.9974233476   -0.6554244796    0.5141747587
 H   -1.4373988775    0.6798524688    1.5796870020
 H   -0.4824423694   -0.2927365090   -1.9566817361
 H    1.7247503106   -0.8523206765   -2.7215085328
 H    2.3903001628   -0.7855573408   -1.0683387288
 H    2.4245774944   -3.9921108826   -2.4744458657
 H    0.7565679603   -4.5590747974   -2.2757810691
 H    1.1420260519   -3.3508699187   -3.5145692086
 H    0.4046144922   -3.8311502690    0.1639697392
 H    1.1132261142   -2.2330607990    0.7040061355