16

 O    0.0567490518    1.3469486448   -0.3627529362
 C    0.0627594677    0.0125413296    0.1219104294
 C   -1.3339358782   -0.5299936055    0.2499075011
 C   -2.3229641696    0.0424368702    1.2664074371
 C   -3.2808367634   -1.1071709596    1.5020365465
 C   -2.9414357228   -2.1994771506    0.8124493138
 C   -1.7368187176   -1.9221240666   -0.0259055330
 O   -1.9534050730   -0.8737423100   -1.0040891469
 H   -0.3841987891    1.3268015788   -1.2198057379
 H    0.6502890793   -0.6516588996   -0.5289281044
 H    0.5503506678    0.0472688554    1.1020412458
 H   -1.8125339718    0.3469403965    2.1892705852
 H   -2.8280430359    0.9333695547    0.8774975180
 H   -4.1521533950   -1.0135945338    2.1405348044
 H   -3.4639789699   -3.1476382744    0.8123184424
 H   -1.0484181404   -2.7018462001   -0.3391078752