19

 C    0.1629088322    1.5520752868    0.0328790224
 C   -0.0517697021    0.0326457433   -0.0247436014
 C   -1.4946806272   -0.3656037970    0.0177896478
 O   -1.9105170467   -1.5925742600   -0.6082053865
 C   -2.5732710834   -0.3647891141   -0.9688248873
 C   -3.6391991208   -0.0105686748    0.1130610562
 C   -3.6521282870   -1.0441676959    1.2247920739
 C   -2.5451230486   -0.0287054826    1.1561494771
 O   -2.3080537206    0.9221780064    2.1334937524
 H    1.2306840084    1.7898856794    0.0224727766
 H   -0.3003925582    2.0437352736   -0.8285320681
 H   -0.2789785338    1.9755187003    0.9376906061
 H    0.3761649631   -0.3822413216   -0.9439167217
 H    0.4763015795   -0.4496924533    0.8090838359
 H   -2.5934169403   -0.1014044950   -2.0198525824
 H   -4.4314184771    0.7117238140   -0.0280316525
 H   -4.3803891637   -0.8287335769    2.0009967123
 H   -3.4805942583   -2.0914791603    1.0110487623
 H   -1.9807405953    0.4707882879    2.9197432068