15

 N   -0.0834331872    1.3176570112    0.0082103684
 C    0.0555487388   -0.0291943700    0.0021853173
 O    1.1245986757   -0.6159646128   -0.0084594216
 C   -1.2581276250   -0.7771588160    0.0101305966
 N   -2.3883865415   -0.0587929626    0.0209923070
 C   -3.5451319521   -0.7218497801    0.0278918106
 C   -3.6289130113   -2.1127061614    0.0243621908
 C   -2.4484622807   -2.8499231634    0.0130644256
 C   -1.2366614555   -2.1702396363    0.0057666960
 H    0.7385215904    1.8959285177    0.0020117774
 H   -1.0087129403    1.7149983618    0.0154373500
 H   -4.4475421672   -0.1154344801    0.0366405984
 H   -4.5976734414   -2.5993857480    0.0303614402
 H   -2.4733149857   -3.9346188548    0.0099905655
 H   -0.2785640269   -2.6741007351   -0.0031670922