25

 C    2.7262839072    2.2775903300   -0.6348784986
 C    1.4019954360    1.5048036773   -0.5962323359
 C    1.3896201907    0.2982989783   -1.5143973051
 C    1.9222630427   -1.0670698330   -1.1076577204
 C    2.5235850424   -1.3530451995    0.2515824040
 C    0.4418575252   -0.8493176122   -1.3003581380
 C   -0.6458633977   -1.0062594642   -0.2227463407
 C   -1.3902871779   -1.9846775559   -1.1790312970
 C   -0.4418905918   -1.5576393179   -2.3378219003
 H    3.5607093693    1.6490121195   -0.3075142029
 H    2.9517820125    2.6205195775   -1.6508160848
 H    2.6925675727    3.1586872083    0.0141230648
 H    1.1852603682    1.1999158881    0.4335860867
 H    0.5821230593    2.1770729197   -0.8838159737
 H    1.5646297468    0.5556442461   -2.5590831488
 H    2.4033300659   -1.6184547357   -1.9141687682
 H    2.0284732280   -0.7952080922    1.0509111562
 H    2.4406722364   -2.4177362170    0.4996075769
 H    3.5874771345   -1.0919164601    0.2778885718
 H   -0.3359921259   -1.4135787222    0.7436542348
 H   -1.2043981422   -0.0822880805   -0.0395999450
 H   -1.2542274150   -3.0303153996   -0.8919653665
 H   -2.4571748416   -1.8045860708   -1.3282651771
 H   -0.9159685823   -0.8629849004   -3.0397339877
 H    0.0237736269   -2.3631057736   -2.9139471544