19

 O   -0.4798326888    0.3861167607   -0.9392727267
 C   -0.2424941229    1.3647902676   -0.2952609730
 C   -1.0676246614    2.2819836218    0.6272569221
 C    0.0627763913    3.3428399827    0.4876952383
 C    1.0081609343    2.2794092868   -0.1607654802
 C    2.1210758031    1.6824515350    0.7324839381
 C    3.3944829610    2.2932300895    0.1262198815
 C    3.0153707482    2.3540038849   -1.3527554392
 O    1.6240419530    2.6773860758   -1.3666008526
 H   -2.0623867109    2.5477979120    0.2631044090
 H   -1.1674205860    1.8612737187    1.6331735969
 H   -0.1849198957    4.1188260379   -0.2390525903
 H    0.4200038213    3.8075920683    1.4083976102
 H    1.9809690924    1.9134799416    1.7905537721
 H    2.1383964170    0.5928581291    0.6218392387
 H    3.5639134995    3.3020874086    0.5163872263
 H    4.2891125032    1.6956357142    0.3163420009
 H    3.5457389035    3.1260173019   -1.9175621466
 H    3.1842897277    1.3855507829   -1.8459341655