17

 C    0.0029088666    1.5406857682   -0.0082223711
 C   -0.0278852102    0.0449602206    0.0270567573
 C   -1.1012566554   -0.7862230689   -0.0320307636
 N   -2.4232773146   -0.4639656800   -0.1039330756
 C   -0.6450653340   -2.2055187933   -0.0439127341
 C    0.2197497329   -2.6494481226   -1.1803424916
 N    0.8104159216   -2.1874490507    0.0854960182
 C    1.1891535684   -0.7698361488    0.0353130094
 O    2.3396810695   -0.4087720963   -0.0050955591
 H    1.0414416047    1.8715900881   -0.0912233944
 H   -0.5553201165    1.9489691822   -0.8598876359
 H   -0.4151926791    1.9880136729    0.9031460840
 H   -2.7039871457    0.4677110903    0.1564741620
 H   -3.1059706383   -1.1813028663    0.0757609315
 H   -1.1870170505   -2.9397115324    0.5481331380
 H    0.3334847955   -3.7107831139   -1.3852702500
 H    0.2894205549   -1.9927713290   -2.0438832749