17

 C    0.0424288594    1.3957544046    0.0151586685
 O    0.0045673407   -0.0251592236    0.0201839509
 C    0.6163184490   -0.6255687688    1.0614551053
 C    0.7098632022   -1.9842320118    1.2507712907
 N    1.4105278221   -2.1098084029    2.4384256344
 C    1.7013225538   -0.8670026061    2.8815507211
 C    2.4308735308   -0.6355434916    4.1655915213
 O    3.0465039621   -1.8642109591    4.5347541484
 N    1.2314793927    0.0636023254    2.0690013297
 H    1.0721930397    1.7679345911   -0.0110008584
 H   -0.4886850151    1.7046205590   -0.8870988549
 H   -0.4505615579    1.8118896581    0.9002779428
 H    0.3717598738   -2.8267877497    0.6753030855
 H    1.7110756717   -2.9550858528    2.8938767145
 H    3.1657391088    0.1693923028    4.0219144737
 H    1.7270000677   -0.2979925558    4.9429417205
 H    3.3435889385   -1.7914052088    5.4455400461