20

 C   -0.1550144465    1.5308941612   -0.0142897179
 C    0.0465846979    0.0134444867    0.0619893490
 C    0.6647050701   -0.5694787291   -1.2056796436
 C    0.7930659251   -2.0795978374   -1.4084503592
 C   -0.4949033357   -2.5805612573   -2.0881415670
 C   -1.4084209427   -1.3770371007   -2.3060986633
 C   -0.1047595434   -0.5732160829   -2.5687153036
 C    0.6103010074   -1.9481587938   -2.8994734866
 H    0.7947302046    2.0478418032   -0.1927065590
 H   -0.8344574360    1.8005566518   -0.8302326621
 H   -0.5790865161    1.9257636296    0.9141380453
 H    0.7027406813   -0.2269802182    0.9093910342
 H   -0.9086624832   -0.4779528983    0.2781648277
 H    1.6472642152   -0.1101843507   -1.3755522834
 H    1.4407759423   -2.7703736163   -0.8821925431
 H   -0.7657115571   -3.6280918533   -2.0472704167
 H   -1.9876851347   -1.4912474301   -3.2269466465
 H   -2.0732226468   -1.0459314035   -1.5005070750
 H   -0.1170198754    0.3132446023   -3.1997544068
 H    1.1956169636   -2.3021010531   -3.7352581126