17

 C    0.0046466586    1.4967766287    0.0991277309
 C    0.0125035963    0.0099956372   -0.0333870658
 C    0.0092450037   -0.7960139133   -1.1573957418
 C    0.0202242964   -2.1522720100   -0.7453624130
 C    0.0215333562   -3.3713033283   -1.6136144395
 C    0.0299942860   -2.1360077387    0.6435454241
 N    0.0255992903   -0.8129743866    1.0549981301
 C    0.0429461062   -3.2019351580    1.5642395208
 N    0.0534996578   -4.0778635794    2.3258691637
 H    0.8903994789    1.8645745555    0.6306583076
 H   -0.0054154095    1.9583516356   -0.8901981238
 H   -0.8774680630    1.8541378634    0.6436920356
 H    0.0001516200   -0.4395876423   -2.1768279315
 H    0.8979811915   -3.3913001459   -2.2708476213
 H    0.0319669993   -4.2839408562   -1.0124484079
 H   -0.8644667463   -3.4027035897   -2.2574671030
 H    0.0284603675   -0.5166360821    2.0163390846