13

 O   -0.0475596117    1.2983738328    0.0098020098
 C    1.1218083976    1.9730437311    0.0020162779
 C    2.3272899764    1.3427268277   -0.0132940879
 N    2.4786331249   -0.0191535695   -0.0222618983
 C    1.3585678169   -0.6919553226   -0.0149542771
 C    1.0300642847   -2.0797083856   -0.0193633915
 C   -0.3430040924   -2.1095766769   -0.0060084493
 N   -0.9730864043   -0.8491519344    0.0070826722
 C    0.0296953147   -0.0361852941    0.0017094817
 H    0.9754710666    3.0437184784    0.0093337696
 H    3.2317027741    1.9397352762   -0.0189050875
 H    1.7152845670   -2.9116206795   -0.0306797774
 H   -0.9729408245   -2.9898694438   -0.0046570568