20

 C    0.2968281831    1.3956471289   -0.6855741000
 O    0.6281164453    0.1181880027   -0.1540224307
 C    0.6209918740   -0.8990700727   -1.0355671684
 N    0.9145118773   -2.0665436134   -0.6709248221
 C    0.8821261245   -3.1112252247   -1.6769495626
 C    2.2122925882   -3.8375338127   -1.6984559672
 O    2.4122713456   -4.7879084828   -2.7467900371
 C    3.2677768823   -3.6361879341   -2.7046799246
 C    3.1977689759   -2.6757521251   -3.8638285540
 H    1.0244319547    1.7181788711   -1.4402868202
 H   -0.7074393315    1.3998790595   -1.1263798720
 H    0.3207702245    2.0922313315    0.1530408481
 H    0.3371873487   -0.6128977487   -2.0613172494
 H    0.1119082731   -3.8424284663   -1.3961126493
 H    0.6242818485   -2.7455731709   -2.6827138258
 H    2.5242068442   -4.1801345630   -0.7103649448
 H    4.2853190266   -3.8705223842   -2.3835964546
 H    2.1677684832   -2.4629447176   -4.1568392509
 H    3.6932851162   -1.7329749405   -3.6072295703
 H    3.7125609456   -3.0977724371   -4.7333784541