23

 O    0.0771353039    1.3975254942   -0.0587245024
 C    0.0227192429   -0.0215892189    0.0093021293
 C    0.5819068576   -0.5990775168    1.3237456594
 C   -0.5535580235   -0.2861571578    2.3348318150
 C   -1.8659620637   -0.2765831204    1.4851234256
 C   -1.4113196633   -0.5845233540    0.0332354988
 C   -1.3512073144   -2.1007706952   -0.2446225798
 C   -0.5227851864   -2.8444128353    0.8200194365
 C    0.7952235909   -2.1164418475    1.1450746106
 H   -0.4060703667    1.7587114256    0.6910150435
 H    0.5865305547   -0.3612840991   -0.8653429768
 H    1.5243775367   -0.1165726164    1.5985075383
 H   -0.5884175905   -1.0201403913    3.1451062284
 H   -0.3887045593    0.6856079199    2.8117722344
 H   -2.5985188209   -1.0054892004    1.8436590815
 H   -2.3586081367    0.6999677503    1.5364087293
 H   -2.0427134263   -0.0905352739   -0.7109932742
 H   -2.3644148742   -2.5176690083   -0.2856169460
 H   -0.9100056082   -2.2582025381   -1.2374562273
 H   -1.1171830464   -2.9366365235    1.7370461439
 H   -0.3186987477   -3.8696641508    0.4932367086
 H    1.5189048874   -2.2759348473    0.3351298019
 H    1.2429496241   -2.5440117551    2.0499501116