16

 C   -0.0726923445    1.4997858999   -0.0052880855
 C    0.0283508665   -0.0128172415    0.0306938543
 O    1.1167975322   -0.5915207929    0.0266747552
 C   -1.1850649390   -0.7795392810    0.0604301977
 C   -1.3439607560   -2.1584219461    0.0611912476
 N   -0.3309514287   -3.0690448154    0.1375390880
 C   -2.7554543012   -2.3951813556    0.0290704274
 C   -3.3383866441   -1.1637601366    0.0189332415
 O   -2.4307607184   -0.1746513920    0.0400347371
 H    0.9323200380    1.9219649590   -0.0329319637
 H   -0.6390193371    1.8287306073   -0.8827796713
 H   -0.6077487120    1.8710120371    0.8750634810
 H    0.5880588858   -2.6713783426   -0.0158065779
 H   -0.4975349559   -3.9925726084   -0.2262956156
 H   -3.2617075157   -3.3478231407    0.0234433576
 H   -4.3718259800   -0.8544061906    0.0010399967