13

 N   -0.1819932953    1.2853068721    0.0084068380
 C    0.0066879128    0.0361912277    0.0013181998
 O   -1.1740320610   -0.7326440117    0.0039462316
 C   -1.1136788967   -2.0750868272   -0.0039467596
 C    0.0739577142   -2.7309608102   -0.0142107543
 C    1.2481003932   -1.9127090357   -0.0159286799
 N    1.2321761872   -0.6185095830   -0.0087090990
 C   -2.3818460908   -2.7103914961   -0.0004069176
 C   -3.4512084367   -3.2610380340    0.0024943361
 H    0.7282255915    1.7429386999    0.0056888188
 H    0.1168806830   -3.8095959386   -0.0204905872
 H    2.2272099840   -2.3911425742   -0.0237300884
 H   -4.3984394354   -3.7431485390    0.0050973816