16

 C    0.0094309298    1.5674565833   -0.0328865520
 C   -0.0049305887    0.0705161042    0.0641025375
 C   -1.2598537773   -0.8168354791    0.0607752536
 N   -0.5757186535   -1.8305805985    0.9389009785
 C    0.5788178615   -0.9274967884    1.0456616413
 C    1.2065776863   -0.7796562055   -0.3255440634
 C    1.1588635518   -1.8132807437   -1.3243310502
 N    1.1228778700   -2.6248874098   -2.1477495553
 H    0.9967761834    1.9710981631    0.2123373247
 H   -0.2421845151    1.9002994815   -1.0466411708
 H   -0.7159998149    2.0140364434    0.6560066424
 H   -2.0967573069   -0.3191805700    0.5602389781
 H   -1.5940266588   -1.2190975931   -0.9005116609
 H   -1.0545855165   -1.9163962604    1.8286372337
 H    1.1603802666   -0.8119098324    1.9534778795
 H    2.1319846121   -0.2104137647   -0.3253556268