14

 N   -0.1026272293   -1.1778346128   -0.0988028979
 C   -0.0866400712   -0.0266438442   -0.0060976742
 C   -0.0234802018    1.4369557415    0.0426920447
 N   -0.5157237030    1.8889810023    1.3785838273
 C    0.2623747188    2.8488397729    1.6866020257
 N    1.2786222859    2.5584411569    2.7108618807
 C    2.1232304578    2.4956237884    1.3912807320
 C    1.4157956072    2.0221096120    0.0474883177
 C    1.2531085185    3.3930932046    0.6056831084
 H   -0.5812662699    1.8278111397   -0.8216813021
 H    1.6269799767    3.4282908720    3.1299115068
 H    3.2035563281    2.4580522666    1.4890225198
 H    2.0964329143    1.8115574524   -0.7731347094
 H    1.3737765981    4.3762745577    0.1716437305