19

 O    0.1043357250    1.3856577520    0.0517777319
 C    0.0624816884   -0.0032000598   -0.2337566549
 C   -1.3345592438   -0.5789430941   -0.0346467871
 C   -1.5502482390   -2.0949387841   -0.1298457090
 C   -0.8636957430   -2.8277394100    0.9924483606
 C   -2.1613262963   -2.1326376937    1.2711544680
 C   -1.9472823745   -0.6121714524    1.4317998510
 C   -1.1203670090   -0.1455998377    2.5321254506
 C   -0.4033958003    0.2517659688    3.4149032735
 H   -0.0015547681    1.4739257201    1.0064799197
 H    0.3537722472   -0.1151514671   -1.2846087245
 H    0.7996651175   -0.5544847696    0.3665455223
 H   -2.0267449400   -0.0357169049   -0.6830932574
 H   -1.8838971816   -2.6126356836   -1.0208255550
 H   -0.9292165025   -3.9093775213    0.9341532383
 H    0.0603205827   -2.4648728716    1.4326588218
 H   -3.0397563417   -2.6582192909    1.6236635486
 H   -2.9015077615   -0.0791742742    1.4435772141
 H    0.2090792903    0.5872540541    4.2153413574