21

 C    0.0075644417    1.3143599767   -0.1265398681
 O   -0.0391633120   -0.0425226687    0.2510985366
 C   -1.3139215187   -0.6268509045    0.1125514894
 C   -1.7071475737   -1.0410471524   -1.3496995047
 C   -1.7915873588   -2.5564990637   -1.0931538348
 O   -2.5466416739   -2.5934709066    0.1654284335
 C   -1.3166665610   -2.0428812218    0.7255849696
 C   -0.5034167122   -2.8820369566   -0.2904633783
 C   -0.3099574275   -4.3451298358    0.0764258449
 H    1.0249010151    1.6683117340    0.0573294480
 H   -0.2288202808    1.4575580205   -1.1916866859
 H   -0.6937217084    1.9232954671    0.4651067790
 H   -2.0781900813    0.0086289258    0.5802482128
 H   -2.6676979092   -0.6324829845   -1.6697780314
 H   -0.9358898389   -0.7627955584   -2.0733913831
 H   -2.1898710528   -3.2091155851   -1.8711421201
 H   -1.2241970251   -2.1402808979    1.8073765123
 H    0.4212618744   -2.4240634106   -0.6512028082
 H   -1.2435478242   -4.7787491926    0.4440365772
 H    0.0207298923   -4.9254201763   -0.7918066302
 H    0.4518730151   -4.4547501187    0.8555920816