19

 C    0.0246255646    1.5667401674   -0.0109768149
 C    0.0442689543    0.0489386923    0.0324521132
 O    0.7652234270   -0.4541150138   -1.1129613305
 C    1.5224238497   -1.5560928860   -0.6806202898
 C    2.5227492060   -1.3237878976    0.4453271305
 O    2.1901959003   -0.1103722049    1.1209635947
 C    0.8029515718   -0.5654121874    1.2067173127
 C    1.1912516286   -1.9874086119    0.7210725964
 C    0.7496325528   -3.3185387871    1.2463114727
 H    1.0417527963    1.9522058048    0.0845802342
 H   -0.3986988549    1.9115153427   -0.9579791733
 H   -0.5891445298    1.9645125070    0.8039169910
 H   -0.9846919149   -0.3507942219    0.0155763307
 H    1.7430596728   -2.2775256053   -1.4594809600
 H    3.5498818905   -1.6702346651    0.4857162690
 H    0.3748612504   -0.4198590675    2.2003692986
 H   -0.3264830892   -3.4679194745    1.0985305662
 H    1.2667355216   -4.1318593651    0.7272651941
 H    0.9603804421   -3.4200506061    2.3168277846