21

 C    0.2136395640    1.3400155420    0.4057401147
 C   -0.0356043461   -0.1626829217    0.3004880778
 O   -0.1713550358   -0.7601627081    1.5883660904
 C   -1.2476232438   -0.4928125164   -0.5977914562
 C   -1.3619954056   -1.9997624260   -0.8090037392
 O   -0.6484966387   -2.5641692755   -1.6097586006
 C   -2.3605095532   -2.7408387235    0.0535175937
 C   -2.3688105692   -4.2433629949   -0.1764216125
 O   -3.3639563933   -4.7941962667    0.6756021020
 H    1.0663203387    1.5339778921    1.0623088319
 H    0.4224223105    1.7773191133   -0.5753169203
 H   -0.6636494053    1.8537088609    0.8196539758
 H    0.8431150232   -0.6486505085   -0.1378126501
 H   -0.8251045794   -0.2516657718    2.0816281125
 H   -2.1579636151   -0.0801374292   -0.1459369619
 H   -1.1024497265   -0.0272672932   -1.5776076442
 H   -2.1230598510   -2.5111149333    1.1002689879
 H   -3.3632237542   -2.3276584400   -0.1222374684
 H   -2.5778863458   -4.4534908604   -1.2351278897
 H   -1.3727442345   -4.6537442857    0.0414780305
 H   -3.3675320291   -5.7472741135    0.5490906557