19

 C   -0.1588130331    1.2468054185   -0.2901453186
 C    1.3380223643    1.4825564199   -0.0095238280
 C    1.2428688515    0.1719986264    0.8094748729
 O   -0.1299791355   -0.0300201269    0.3822006139
 C    2.1249635180   -0.9779374311    0.3849560265
 C    3.5535365299   -1.2240750748    0.9555237441
 C    2.9631025648   -1.7103661257    2.3012124270
 C    2.1689772948   -2.3419784706    1.1335438313
 O    3.4617757642   -2.6157915878    0.4569687731
 H   -0.8395890877    1.9522462043    0.2036612871
 H   -0.4531253894    1.1496322901   -1.3413209312
 H    1.9814410093    1.4099147393   -0.8889322503
 H    1.5935433257    2.3830526787    0.5504221890
 H    1.2794481952    0.3412115646    1.8926969793
 H    2.0883463089   -1.1171354723   -0.6989501339
 H    4.4791551595   -0.6817910249    0.7586637847
 H    3.5985642986   -2.4099517911    2.8447441226
 H    2.4670555613   -0.9949806792    2.9595852764
 H    1.4284797397   -3.1411001575    1.1462060442