21

 C   -0.1277864236    1.5151210692   -0.0756733407
 C    0.0104531542   -0.0073421502   -0.0172573796
 C    0.9692009511   -0.5343603268   -1.1445426308
 C    2.3217224691   -0.6719533529   -0.4495029227
 C    2.1340854745   -0.7307027644    0.8641309274
 C    2.6730438320   -0.3294987092    2.2213685012
 C    1.2487546323    0.3022849538    2.4778736679
 C    0.6936973134   -0.5390401892    1.2655284386
 O   -0.0198805367   -1.7026609032    1.6765285181
 H    0.8515103271    2.0056945483   -0.0342902509
 H   -0.6102680248    1.8217598364   -1.0093553883
 H   -0.7319905615    1.8952364576    0.7543094390
 H   -0.9809875765   -0.4612565609   -0.0996124074
 H    0.6209241189   -1.4875584843   -1.5628614146
 H    1.0222313501    0.1706746418   -1.9825530175
 H    3.2655822390   -0.6327276419   -0.9831767873
 H    2.8771357577   -1.1688867810    2.8957031549
 H    3.5380488124    0.3376555323    2.2389148917
 H    0.7818826445    0.0850926627    3.4422158201
 H    1.2424796410    1.3799051337    2.3045103496
 H    0.5553331660   -2.2310499217    2.2403354911