17

 C   -0.1666549907    1.3818636971    0.0667559961
 N   -0.0711834459   -0.0639841092    0.0908920436
 N   -0.0668764702   -0.7559939021   -1.0546973743
 C    0.0644125673   -2.0352822349   -0.6940605299
 C    0.1420853250   -2.1546313262    0.7058915570
 O    0.2650208721   -3.2641025355    1.4894475585
 C    0.0568653816   -0.8612641584    1.1963250061
 C    0.0556503100   -0.3565506965    2.5997609910
 O   -1.1568966186    0.3091137162    2.9637889959
 H    0.8215883046    1.8471177649    0.1594512990
 H   -0.6050808514    1.6690701836   -0.8887472421
 H   -0.7998161079    1.7136563372    0.8915874584
 H    0.0883888724   -2.8122978112   -1.4447158743
 H    0.3332063574   -4.0374416434    0.9221761466
 H    0.2676954831   -1.2024626584    3.2666061808
 H    0.8417628328    0.3898823955    2.7588393134
 H   -1.8789738415   -0.3069206588    2.7981195241