19

 C   -0.1419885128    1.5139267595    0.1337279337
 C    0.0332545662    0.0097636438    0.0185232927
 C   -1.2828080202   -0.7595694060   -0.2567446864
 C   -1.2225177179   -2.0062997335    0.6045746890
 O   -0.1157228068   -2.8652125375    0.3152678482
 C   -0.0093192054   -1.9890304025    1.4448954491
 C    0.7977962866   -0.7395321684    1.1560938383
 C    1.9163340076   -0.8867256117    0.1024435465
 O    1.0855747707   -0.3154908235   -0.9282775427
 H    0.8134842528    1.9983828458    0.3552539597
 H   -0.5178053975    1.9236007618   -0.8099801828
 H   -0.8545335286    1.7679872985    0.9259147982
 H   -2.1569296338   -0.1595351674    0.0203392815
 H   -1.3588109573   -0.9989604263   -1.3216176167
 H   -2.1363684941   -2.5176468932    0.8996597704
 H    0.0509078893   -2.4845011134    2.4109130228
 H    1.0367865769   -0.1754024881    2.0594159464
 H    2.8075781168   -0.2756221881    0.2917001788
 H    2.2124371676   -1.9128008198   -0.1336626369