18

 C   -0.0125005586    1.5115085303    0.0195462890
 C   -0.0025289704    0.0123907196   -0.0246330137
 C   -0.0356014793   -0.6832419468   -1.1886359960
 N   -0.0256960715   -2.0520995558   -1.2090557090
 C    0.0179824549   -2.7745330944   -0.0469842860
 C    0.0534672061   -2.1703037052    1.1669257115
 C    0.1018787821   -2.9431941856    2.4513448162
 C    0.0451779690   -0.7046714915    1.2558770314
 O    0.0763334711   -0.1136056602    2.3370927404
 H    0.8759528359    1.8851969215    0.5394124905
 H   -0.0483436746    1.9493169566   -0.9821133268
 H   -0.8709849146    1.8719367785    0.5960574120
 H   -0.0712604236   -0.2031131912   -2.1602457884
 H   -0.0519294110   -2.5342181776   -2.0909622942
 H    0.0221635840   -3.8520810353   -0.1682194420
 H    0.1019292251   -4.0231616832    2.2782598208
 H    0.9946571572   -2.6752879359    3.0262074696
 H   -0.7522153917   -2.6847053538    3.0861042847