20

 C   -0.7002861492    1.2267579044    0.1183914819
 C    0.3542612642    0.1444158600   -0.1531206492
 C    0.8974893427   -0.4556551134    1.1142080518
 C    2.0858440112    0.1095948069    1.9200809121
 C    2.0474529108    0.5242706563    3.3734462001
 C    2.1111324037   -1.3040056886    1.4488853236
 O    1.3277222899   -2.1423233182    2.3437954122
 C    0.1791344989   -1.4346777338    1.9906625305
 N   -1.0228951525   -1.6458486219    2.2790317998
 H   -0.2733895134    2.0584399399    0.6885886918
 H   -1.0964595144    1.6277952683   -0.8193599270
 H   -1.5316646429    0.8127776200    0.6952545090
 H   -0.0876330433   -0.6509217503   -0.7655509677
 H    1.1837933402    0.5638451345   -0.7353266523
 H    2.6812665996    0.7603072124    1.2795112768
 H    1.5091093606   -0.2067669755    3.9798179917
 H    3.0634481538    0.6097653247    3.7734597391
 H    1.5564765427    1.4953035056    3.4897054717
 H    2.8447862580   -1.8041724133    0.8304472859
 H   -1.1224074306   -2.4642556779    2.8822498180