19

 C   -0.1220404488    1.5375830999   -0.0276416607
 C    1.3077785257    1.0723881094    0.1075940315
 C    0.1965024421    0.0660520991   -0.0315396262
 N   -0.1566667878   -0.6798744370    1.1483774158
 C    0.3556228264   -2.0831954669    1.2152421279
 C   -0.8571967056   -2.5355498216    2.0887719009
 N   -1.2454111629   -3.7057894844    1.2377433383
 C   -0.7370522453   -2.6970114439    0.2538642467
 C   -1.3942829020   -1.5139829065    1.0505505621
 H   -0.6037321212    1.9249467426    0.8626358003
 H   -0.4333365689    1.9998902064   -0.9575662734
 H    1.9825741561    1.2140060770   -0.7290761665
 H    1.7654427935    1.1544486906    1.0866609689
 H    0.1200387603   -0.4479600588   -0.9932833894
 H    1.4136120394   -2.3353225585    1.3150218351
 H   -0.9592100085   -2.5033587561    3.1729625427
 H   -0.5642226467   -4.4617235975    1.3486996742
 H   -0.7071208710   -2.8881190052   -0.8191880946
 H   -2.3999735950   -1.1051761786    0.9569479064