16

 C   -0.0378912327    1.4983943371    0.0101922193
 C   -0.0030386505   -0.0180511728    0.0024766613
 O   -1.3516231088   -0.4864092954    0.0119987924
 C   -1.5484391479   -1.8164806624    0.0058125229
 C   -2.7473955544   -2.5007970339    0.0103609779
 C   -2.3632787058   -3.8585291616    0.0003483462
 N   -1.0461683239   -4.0235415225   -0.0098992167
 N   -0.5610476234   -2.7511146213   -0.0060785574
 H    0.9809689883    1.8960913129    0.0034532680
 H   -0.5649501883    1.8741577495   -0.8705493453
 H   -0.5497982878    1.8654454776    0.9034573433
 H    0.5109906831   -0.3928261380   -0.8947389873
 H    0.5265846497   -0.4014137067    0.8869210194
 H   -3.7337129606   -2.0697760149    0.0195743128
 H   -3.0057813267   -4.7274402940    0.0000751438
 H    0.4328994297   -2.6101086337   -0.0125882606