17

 C    0.0027135669    1.4845000818    0.1201662893
 C    1.4588074373    1.9484914293   -0.0226072969
 N    2.3770314880    1.8930768014   -1.1869569534
 C    2.2501134399    0.7217113240   -0.3302174680
 C    2.9901282714    0.2150088560    0.8769333418
 C    2.1411588332   -0.6187011633    1.4967452934
 C    0.9493225662   -0.9456793327    0.6214816261
 C    1.2292979199   -0.3559907900   -0.7006577994
 N   -0.0292630566    0.0189387136   -0.0730339079
 H   -0.3591836089    1.7652258755    1.1151101680
 H   -0.6928168904    1.9200251255   -0.6098152409
 H    1.8271418001    2.6324223838    0.7356777452
 H    1.8932843492    1.7114805456   -2.0659922343
 H    3.9053546620    0.6371382114    1.2730721584
 H    2.2787778076   -1.0593427473    2.4755899612
 H    0.4739898122   -1.9132179424    0.7363782121
 H    1.2474843321   -0.8627377420   -1.6639381848