16

 O   -0.0484804161    1.4407457610   -0.1082470025
 C    1.4064757955    1.4335150785    0.0225817659
 C    2.0312162187    1.2057508754   -1.3368823266
 C    2.6459144458   -0.1311788736   -1.4717463391
 C    1.9475426791   -0.9611420284   -0.3769832950
 C    1.3921052963    0.0227379777    0.6946526168
 C   -0.0217177851    0.0182448431    0.0630074841
 C    0.6213401823   -0.7395731165   -1.1550277232
 N    1.3277593413    0.1674801214   -2.1518417891
 H    1.7719638861    2.3092982306    0.5621284783
 H    2.3729045531    2.0451301955   -1.9323301427
 H    3.5440999662   -0.3633805647   -2.0327617164
 H    2.3231236558   -1.9360398204   -0.0769782631
 H    1.6117071348   -0.0650882002    1.7571094376
 H   -0.9367911315   -0.3888920929    0.4969041242
 H    0.0660492378   -1.5245455067   -1.6666622091