19

 C   -0.0004126985    1.4731809148   -0.1965890571
 N   -0.1179971725    0.0288432792   -0.2761177609
 C   -1.1666435026   -0.6549811665    0.2586852208
 O   -2.1067766793   -0.1155112505    0.8181940216
 C   -1.0693419973   -2.1814868504    0.1434464158
 C   -0.4553283708   -2.7516984105    1.4339600011
 C   -2.4909890760   -2.7307953940   -0.1127660266
 C   -2.5197509074   -4.1854271343   -0.2318508265
 N   -2.5228513366   -5.3371509891   -0.3299443610
 H    0.8864320387    1.7704041638    0.3738267151
 H    0.0570774433    1.9209315032   -1.1943718104
 H   -0.8916168844    1.8434451126    0.3108488737
 H    0.6164837235   -0.4914288898   -0.7264853091
 H   -0.4309951905   -2.4516365849   -0.7060601163
 H   -1.0586083629   -2.4625343591    2.2997971323
 H   -0.4079512768   -3.8429588317    1.3902285103
 H    0.5586099095   -2.3700545101    1.5842032035
 H   -3.1443834028   -2.4097239706    0.7039978927
 H   -2.9054399967   -2.2976791920   -1.0293993191