18

 C    0.0272181664    1.5653056367    0.0503146274
 N    1.2497780610    0.7167055108    0.0446513658
 C   -0.0703603544    0.0967921611    0.0117174850
 C   -0.5317324322   -0.9518818146    1.0300821340
 C   -2.0601863280   -0.9101748578    0.8102129041
 C   -1.9618703369   -1.4289475305   -0.6412260108
 O   -1.4076665327   -2.7617854509   -0.4250147571
 C   -0.2081773024   -2.0561167803   -0.0983315987
 C   -0.5335939493   -0.8813802415   -1.0546230980
 H   -0.1405217920    2.1057277397    0.9782442146
 H   -0.2184576074    2.1248373981   -0.8491568944
 H    1.6630969338    0.7198810116   -0.8858516283
 H   -0.1260678176   -0.9909188332    2.0378676033
 H   -2.6296811887   -1.6088268274    1.4257285995
 H   -2.4709710940    0.0980610664    0.9078111851
 H   -2.8310479521   -1.4137077558   -1.2967741813
 H    0.7042744949   -2.6465487263   -0.0575944155
 H   -0.2618353784   -0.8459099961   -2.1087006547