20

 C   -0.1274112240    1.4391338064   -0.2068193388
 C   -0.0126389571   -0.0281379215    0.0945905443
 N    0.0887094931   -0.4639841312    1.2806419880
 O   -0.0371936644   -0.7418929137   -1.0681798591
 C    0.0615979293   -2.1603544952   -0.9827395578
 C    0.0104957611   -2.6997061882   -2.4035275109
 C    0.1072685391   -4.2180057413   -2.4540133487
 C    0.0650044295   -4.8503090250   -3.8320051529
 O    0.2120907193   -4.8779372572   -1.4446296316
 H    0.6965278380    1.7588448823   -0.8524864246
 H   -1.0583158231    1.6436587503   -0.7449359165
 H   -0.1075938838    2.0051926018    0.7231501256
 H    0.1581840464   -1.4793987191    1.3283190773
 H    0.9985718379   -2.4517455511   -0.4936872931
 H   -0.7630619988   -2.5680040792   -0.3862781305
 H   -0.9170440704   -2.3828188980   -2.8973085730
 H    0.8221495864   -2.2684462808   -3.0033587509
 H    0.8855841392   -4.4708519404   -4.4512368417
 H    0.1416599354   -5.9344626086   -3.7439950045
 H   -0.8667383930   -4.5860225702   -4.3446270608