20

 C   -0.1497129011    1.5572100519    0.0227744860
 C    0.0399329920    0.0332249698   -0.0211444996
 C    0.8107615568   -0.5070164372    1.1961391903
 C    2.2489649077    0.0406211696    1.3107910495
 C    2.9851046608   -0.5737513860    2.4134011989
 N    3.5514897446   -1.0709821982    3.2893172809
 C   -1.3239506349   -0.6828873983   -0.1336636326
 C   -2.0079046326   -0.4109311992   -1.4552725173
 O   -3.1181534347    0.0343214798   -1.5847033178
 H    0.8044050855    2.0909143813   -0.0054036650
 H   -0.7421300506    1.9075830425   -0.8278479310
 H   -0.6784146797    1.8566164341    0.9351063649
 H    0.6210699947   -0.2169346366   -0.9219533181
 H    0.2640199113   -0.2695548650    2.1164026929
 H    0.8614018826   -1.5996229883    1.1377338085
 H    2.8004362583   -0.1442096233    0.3809194786
 H    2.2453102809    1.1244320833    1.4648640532
 H   -1.1668718666   -1.7695081454   -0.0719681785
 H   -1.9974738194   -0.3902604533    0.6781251106
 H   -1.3851011156   -0.6630083113   -2.3472979544