19

 C   -0.1036699509    1.5636069880    0.0187096410
 C    0.0809515710    0.0448002796   -0.0233187869
 N    0.7075798683   -0.4208345285   -1.2463462186
 C    0.1113810016   -0.5821405676   -2.4941607194
 C    1.0638820193   -0.9971301504   -3.3547784738
 N    2.2602300711   -1.0897995291   -2.6486550451
 C    3.5499448139   -1.4960542921   -3.1560657453
 C    2.0609723047   -0.7278541052   -1.3211763762
 O    2.8869850333   -0.6899134813   -0.4220480800
 H    0.8639890988    2.0680089177   -0.0511796328
 H   -0.7328848831    1.9106824324   -0.8070730070
 H   -0.5805236837    1.8609474157    0.9579246538
 H    0.7340180366   -0.2801368417    0.7906995002
 H   -0.8825419379   -0.4645880688    0.0919271938
 H   -0.9376168231   -0.3977079496   -2.6508082448
 H    1.0022079052   -1.2386496921   -4.4019599724
 H    3.5206641996   -2.5197770280   -3.5449558389
 H    3.8946941865   -0.8253525815   -3.9506842498
 H    4.2494693686   -1.4501244176   -2.3194927678