15

 O   -0.2123276196    1.3413099188    0.1363741634
 C   -0.0328677618    0.0171816001    0.0292281273
 C    0.2215776834   -0.7972710026   -1.0510206193
 N    0.3167502123   -2.0786099753   -0.6022178898
 N    0.1376143308   -2.1088123265    0.6862673741
 N   -0.0784696151   -0.8212453920    1.0822973762
 N    0.3507252977   -0.3283012241   -2.3699617437
 C    1.3155148124   -1.0183444089   -3.2430827889
 C   -0.1429347816   -1.1992982408   -3.4502293281
 H   -0.1286753017    1.6948245576   -0.7613274308
 H   -0.2426237712   -0.6093680833    2.0529073129
 H    1.8857399220   -0.3681217852   -3.8998879648
 H    1.8616611641   -1.8481356908   -2.8050876886
 H   -0.5728744999   -2.1501949697   -3.1508697880
 H   -0.6496306718   -0.6826917574   -4.2599923019