18

 C   -0.0506247486    1.4985337418   -0.0194086743
 C   -0.0006161208   -0.0178581674    0.0002577281
 N   -1.2745934891   -0.6179660285   -0.4303172138
 C   -1.5869573030   -1.4448404751    0.4820787750
 O   -0.7885479527   -1.6164726896    1.5737188196
 C    0.3314849284   -0.7307161885    1.3446673145
 C    1.5977484017   -1.3289687284    0.7375844698
 C    1.3004315031   -2.1187710236   -0.5061305496
 C    1.2899630757   -0.6270734938   -0.6065404160
 H    0.8890729675    1.9228139081    0.3495485857
 H   -0.2141035332    1.8572979006   -1.0402111875
 H   -0.8697508977    1.8671986230    0.6052749446
 H   -2.4789171704   -2.0630550010    0.4901352584
 H    0.4799577371   -0.1168760355    2.2343238134
 H    2.5427579265   -1.4183773164    1.2586728634
 H    2.1697881963   -2.5982492935   -0.9445753131
 H    0.3854390251   -2.6936432288   -0.6049767516
 H    1.9675408041   -0.0844773633   -1.2548831463