16

 O   -0.0419805073    1.4437204048   -0.0097724797
 C   -0.0025120306    0.0380110525    0.0618099016
 C    0.5113993514   -0.5386139648    1.3973264387
 O   -0.0307079657   -1.8544899405    1.4646776196
 C   -1.3205447363   -1.8234807170    0.8790322962
 C   -2.4255167724   -1.1353714743    1.7078724831
 O   -2.3498780793    0.0553074767    0.8914352376
 C   -1.4075399738   -0.5612137797   -0.0109553253
 H    0.8621024384    1.7684681634   -0.0599036537
 H    0.5807977089   -0.3967679765   -0.7659799431
 H    1.5994933684   -0.6248917736    1.4599457002
 H    0.1547066203    0.0993229588    2.2188132886
 H   -1.5371103645   -2.8118910585    0.4731708010
 H   -3.4139930754   -1.6076545197    1.6460393249
 H   -2.1727075100   -0.9469676974    2.7575129073
 H   -1.8046762019   -0.6372031641   -1.0271194370