17

 C   -0.0359686140    1.5001690564    0.0147576713
 C    0.0558037813    0.0128721031    0.0655496494
 C    1.1995885507   -0.8549437859   -0.3752557747
 C    0.6625625115   -1.0067519110    1.0320692437
 N    1.4360320821   -0.9807247471    2.2136528441
 C   -0.7081339293   -1.6996267121    0.9353519803
 O   -1.1717710107   -0.7346556984   -0.0403993725
 C   -0.7521751465   -3.0818181437    0.4543825800
 N   -0.7591486413   -4.1751936979    0.0796568048
 H    0.9372531500    1.9482643526    0.2359596608
 H   -0.3414964139    1.8371614930   -0.9819694210
 H   -0.7677988556    1.8723855252    0.7384653957
 H    1.0511377267   -1.6310675201   -1.1214003170
 H    2.1623941926   -0.3530871280   -0.4181152727
 H    2.4312559963   -0.9812964394    2.0402473639
 H    1.1999796814   -0.2243240724    2.8439941862
 H   -1.2841634213   -1.6153198243    1.8640666278