19

 C   -0.2896401218    1.3742807971    0.0811042591
 C   -0.2333075788   -0.1176359192   -0.2546216012
 N    0.7427108984   -0.4454253258   -1.2922641589
 C    2.1622913948   -0.4834363402   -0.9418551202
 C    2.5783843845   -1.8826417862   -0.4519228102
 N    2.7745422237   -2.7719085322   -1.4610540045
 O    2.7007969368   -2.1407644256    0.7305734428
 C    0.3688847156   -0.8397789792   -2.5324925896
 O    1.1319376179   -1.2408447106   -3.3986559109
 H    0.6749754234    1.7432730071    0.4415038909
 H   -0.5725388241    1.9615191003   -0.7974923420
 H   -1.0278545219    1.5522330719    0.8688800726
 H    0.0097300462   -0.7034508598    0.6391062036
 H   -1.2126435320   -0.4595189967   -0.6039670315
 H    2.7367017231   -0.1945503188   -1.8251596883
 H    2.3513404519    0.2200677171   -0.1313811883
 H    2.4751722399   -2.5325624795   -2.3980482967
 H    2.9174391502   -3.7385528379   -1.2146372985
 H   -0.7215166779   -0.7579153315   -2.6938958482