18

 C   -0.0958713982    1.5443146023   -0.0711775606
 C    0.0095592233    0.0305853673    0.0103556322
 O    0.8583598325   -0.4957408690   -1.0318141594
 C    1.8562471383   -1.1922978800   -0.3174764318
 C    1.2570278010   -1.9590619495    0.8874550906
 N    2.5467431001   -1.7434511037    1.6376215106
 C    2.2759598485   -0.4212962412    0.9632120211
 C    0.7425101069   -0.5118275327    1.2420510071
 O    0.3022687708   -0.1770208571    2.5162711655
 H    0.8914466974    2.0075689327    0.0151527719
 H   -0.5359965498    1.8475119296   -1.0250054683
 H   -0.7260356113    1.9223439970    0.7401516419
 H   -0.9889431485   -0.4223396542   -0.0888194645
 H    2.5952501905   -1.6485645898   -0.9696423514
 H    0.7120747748   -2.9046840592    0.8976125007
 H    2.3222906781   -1.6389660371    2.6310151634
 H    2.9344608485    0.4416364585    1.0646324326
 H   -0.5778140426   -0.5468215239    2.6485072683