20

 C   -0.1677175547    1.5089950221   -0.0987238539
 C    0.0193442856    0.0146299386    0.0409704487
 C    1.3629785910   -0.6540866911   -0.2038667812
 C    0.7625873542   -0.6135269477    1.1784089520
 C    1.4130250440    0.1369499583    2.3149042531
 C    2.3986366141   -0.8094493388    3.0145683438
 N    1.8222560041   -2.1202181839    3.2991367872
 C    0.8184902116   -2.4821849310    2.6229587960
 O    0.1752224820   -1.8366352562    1.6152166043
 H    0.7210196854    2.0639312822    0.2156762138
 H   -0.3651359597    1.7744158566   -1.1427275327
 H   -1.0126111736    1.8639063217    0.5013829596
 H   -0.8328427212   -0.5789858766   -0.2800646590
 H    1.3719566681   -1.6061996935   -0.7215561835
 H    2.2236258369   -0.0197616496   -0.3961489173
 H    1.9213696592    1.0324806657    1.9488834809
 H    0.6437560854    0.4608996251    3.0268104372
 H    3.2944848971   -0.9489886403    2.3948361975
 H    2.7430036104   -0.3766317885    3.9601087112
 H    0.3267659702   -3.4338805432    2.8161649124