23

 C    0.0538591323    1.5071964208   -0.0591861998
 C    0.0293115711   -0.0243944404    0.0140381272
 O    0.7783129709   -0.4921553533    1.1400916909
 C   -1.3697721299   -0.5833543449    0.0095286006
 C   -1.9473175690   -1.2671221971   -0.9792777358
 C   -3.3813383936   -1.6478540214   -0.6833145869
 C   -3.7599002697   -3.0760270525   -1.0901203110
 C   -3.4746062966   -1.3818045462    0.8430518097
 C   -2.3373417820   -0.3832530973    1.1641016302
 H    1.0874952050    1.8644073525   -0.0468306505
 H   -0.4337135265    1.8644301863   -0.9713922052
 H   -0.4717369668    1.9499464611    0.7955899261
 H    0.5638486731   -0.4268454913   -0.8534889369
 H    0.4304998592   -0.0541732234    1.9242168292
 H   -1.4661836859   -1.5109332242   -1.9223037741
 H   -4.0518936461   -0.9582796689   -1.2209362435
 H   -3.1084329622   -3.8066904426   -0.5981424397
 H   -4.7942874228   -3.3037548394   -0.8106675389
 H   -3.6687407422   -3.2202772795   -2.1720747646
 H   -4.4598548725   -1.0236042309    1.1537955582
 H   -3.2884422689   -2.3223512546    1.3739047275
 H   -1.8807725016   -0.5750064797    2.1423541010
 H   -2.7040496054    0.6530853270    1.1903804464