21

 C   -0.0079164946    1.5575048520   -0.0003013067
 C    0.1073333628    0.0499758470   -0.0818097787
 C    0.7012349775   -0.7402627021   -1.2121334408
 C   -0.0299713300   -1.8552423038   -1.9019085631
 C    1.9265077128   -0.0211883731   -1.7975961123
 C    2.6060834306   -0.0184433661   -0.3948344480
 C    1.3798545361   -0.7390948263    0.1959109361
 C    1.4357257642   -1.7728441896    1.1706251807
 C    1.4991628290   -2.6556928211    1.9884454654
 H    0.8639864438    2.0720130890   -0.4108384971
 H   -0.8864909001    1.9051668374   -0.5552393921
 H   -0.1232066247    1.8801624499    1.0398994686
 H   -0.7543416248   -0.4620060149    0.3429365012
 H   -0.6713764864   -1.4708011677   -2.7047829469
 H    0.6677076693   -2.5720128401   -2.3494298950
 H   -0.6666660382   -2.4020275795   -1.1992959776
 H    2.4661563465   -0.6478297245   -2.5116297562
 H    1.7421172786    0.9504229974   -2.2669040139
 H    3.4986131393   -0.6452463703   -0.3649660340
 H    2.8496392881    0.9533567150    0.0449960667
 H    1.5516699102   -3.4283854787    2.7142014837