16

 C    0.2736374808    1.3571072613    0.1287928052
 N    0.0951606121   -0.0810268655    0.0790927423
 N   -0.0926343437   -0.7035238631   -1.1126755990
 C   -0.2642736600   -1.9631699692   -0.7505296589
 N   -0.2019712186   -2.1933180095    0.5875203011
 C    0.0233588954   -0.9863981224    1.0819113621
 C    0.1539016957   -0.6750902936    2.5476549310
 C    1.4368302719   -0.0845218961    2.9254299511
 C    2.4879701713    0.4086543963    3.2344703497
 H    0.8654049561    1.6197010551    1.0065842913
 H    0.8016105525    1.6649519438   -0.7740091611
 H   -0.6926735440    1.8704425724    0.1678422803
 H   -0.4354734019   -2.7433286239   -1.4771450764
 H   -0.6608083553   -0.0110223222    2.8669270374
 H    0.0073257228   -1.6229333720    3.0741766835
 H    3.4222124051    0.8300952585    3.5132331403