19

 C    0.0923608109    1.4354397058    0.0063595667
 C   -0.0524156310   -0.0616723722    0.0082440557
 C   -1.4373783328   -0.7305153479    0.0834688492
 C   -0.8290906443   -2.1198416904    0.0433673648
 C    0.2767783989   -2.0330310675   -1.0718065981
 C    1.2975956335   -2.6332730450   -0.0786095308
 C    0.3950822992   -2.0418475608    1.0279466609
 O    0.6284770200   -0.6283551188    1.1314842864
 O    0.4977205862   -0.6186258150   -1.1890931553
 H    1.1490953690    1.7058889634   -0.0520202160
 H   -0.4286476594    1.8602655942   -0.8545661258
 H   -0.3284944400    1.8528240927    0.9238526014
 H   -1.9618043693   -0.5005689675    1.0134513231
 H   -2.0628380204   -0.4930466001   -0.7797653525
 H   -1.4551802387   -3.0076182445    0.0749180468
 H    0.1401135718   -2.4586831983   -2.0669339611
 H    1.2721207000   -3.7276164014   -0.0817702380
 H    2.3250386424   -2.2693210294   -0.1349664454
 H    0.3708640140   -2.4758508274    2.0285409679