16

 C   -0.6554200002   -0.2540584600    1.2091491259
 C   -0.1165980788    0.2491719505    0.2602470496
 C    0.5429966649    0.8743315734   -0.8787612264
 C    1.6669872536    1.7978249345   -0.4841659042
 C    2.6353967329    1.6465679921    0.6434387304
 C    1.8249029836    2.9260878245    0.5090474723
 C    2.3539565107    3.7188697860   -0.6787108165
 O    2.2561740519    2.5561046888   -1.5496835964
 H   -1.1390856951   -0.7060423396    2.0393771165
 H    0.9459155211    0.1012054704   -1.5480711696
 H   -0.1861566930    1.4417765822   -1.4709058850
 H    2.3113057560    0.9979373262    1.4503039819
 H    3.7023833689    1.6432069597    0.4358211638
 H    1.1584085922    3.2873914523    1.2799218436
 H    1.6780093408    4.5102676223   -1.0213359828
 H    3.3782147706    4.1059153565   -0.6193342129