18

 O    0.3148754483    1.4377614630    0.1400591528
 C    0.1303514314    0.0542763502    0.0536325845
 C    0.3140132250   -0.7621795439    1.3405023853
 N   -0.7335800120   -0.2236891792    2.2447310944
 C   -1.0787636068   -1.2804929887    1.2531506292
 C   -1.3424518541   -0.5151372800   -0.0416816312
 C   -2.5644008926    0.3730500541   -0.3002476160
 C   -2.7749956729   -0.5276097783   -1.5333703475
 O   -1.6043338745   -1.3154019561   -1.2068801584
 H   -0.0803450997    1.6974434992    0.9837317954
 H    0.7113991471   -0.3225196006   -0.7914556739
 H    1.2121714207   -1.2187936297    1.7375126160
 H   -0.6251173704   -0.6740717625    3.1519065473
 H   -1.4898610439   -2.2342270861    1.5592960544
 H   -3.3418647383    0.3322558086    0.4639499778
 H   -2.3122383745    1.4133103623   -0.5132824795
 H   -3.6847301179   -1.1391494398   -1.5326383120
 H   -2.6738352351   -0.0374342925   -2.5080600884