12

 O   -0.0459368498   -0.0568137680    0.0038242594
 C    0.0075853575    1.1386606999    0.0093184915
 O   -1.1826926068    1.8742268864    0.0288880577
 C   -1.1600777874    3.2137553985    0.0354845278
 C   -0.0023500561    3.9236399188    0.0237738713
 N    1.2218252322    3.2641994270    0.0041234514
 C    1.2136320135    1.9765956905   -0.0024036263
 C   -0.0109457998    5.3454423138    0.0312202371
 C   -0.0278575488    6.5482485420    0.0376573210
 H   -2.1494648780    3.6537867577    0.0508855122
 H    2.1581850890    1.4383072449   -0.0177396741
 H   -0.0356390357    7.6103694284    0.0432646911