18

 O   -0.0249351896    0.2924459618   -0.8204063749
 C   -0.0324370753    1.3030154044   -0.1823411517
 C   -1.1597793474    2.1776696762    0.4060238442
 C   -0.0618767456    3.1845828718    0.8047003375
 C    1.0652963416    2.2518246363    0.3310994671
 C   -0.0442321130    4.6516976712    0.7105855079
 C   -1.3954851736    5.2589816194    1.0742413024
 C   -1.2938390624    4.4539029978    2.3955865112
 N    0.0805792652    3.9316461984    2.0568333520
 H   -1.9182525969    2.5063108690   -0.3105555755
 H   -1.6626849663    1.6936417888    1.2510400472
 H    1.6573371806    1.8279694836    1.1488657474
 H    1.7452843901    2.6332492992   -0.4362579072
 H    0.7938458856    5.1864810091    0.2725421380
 H   -1.3534486869    6.3375872316    1.2338723156
 H   -2.2267363733    5.0363059489    0.3980304230
 H   -1.2387315066    5.0772378841    3.2894850497
 H   -2.0351383261    3.6652707482    2.5607240560