19

 C   -0.2289945970    1.4319607540   -0.2017771627
 O   -0.0921898848    0.0037053630   -0.1659725303
 C    0.5231236833   -0.5362921765   -1.2172074000
 O    0.9533254965    0.0803481216   -2.1620632230
 C    0.6404251954   -2.0772438048   -1.0790421201
 O    0.3275525241   -2.6216120806   -0.0512966900
 C    1.1660817387   -2.7924084661   -2.3117755162
 C    1.6586769111   -4.1976564334   -1.9627070315
 C    0.0574943943   -2.8171714737   -3.3889623285
 H    0.7536908745    1.9084166989   -0.2420911585
 H   -0.8056168262    1.7387919276   -1.0780608597
 H   -0.7501403340    1.7014332236    0.7159927481
 H    1.9864304167   -2.1826953253   -2.7071358150
 H    0.8490477587   -4.7997851292   -1.5414089101
 H    2.0346538023   -4.6998179751   -2.8588782371
 H    2.4635068279   -4.1660250857   -1.2229684536
 H   -0.8117144146   -3.3846409643   -3.0401353351
 H   -0.2639958320   -1.8074815255   -3.6543610964
 H    0.4360224151   -3.3010810386   -4.2938596402