17

 C   -0.0487189414    1.5391123638   -0.0599501839
 C    0.0056217944    0.0432379482    0.0499427070
 O    0.8267831023   -0.6004821502   -0.9517838814
 C    1.5843166498   -1.3375720603    0.0331138434
 C    0.7213891753   -0.8166008082    1.1876183516
 O    1.4213454325   -0.3466064338    2.2862678900
 C   -0.5883471086   -1.5741640252    1.3698618274
 O   -1.5805980636   -0.5845883933    1.7034620246
 C   -1.2556482814   -0.7822440049    0.3202148382
 H    0.9469947887    1.9726047836    0.0717715140
 H   -0.4222104147    1.8351529062   -1.0463665582
 H   -0.7161567807    1.9490971314    0.7034335212
 H    1.5807398950   -2.4175112153   -0.1524944043
 H    2.6177667652   -0.9781252709    0.0977672429
 H    0.7750179136   -0.0173773165    2.9225168202
 H   -0.7681678608   -2.5891171854    1.7071448622
 H   -2.0510835256   -1.0736921893   -0.3551933249