20

 C   -0.0965719123    1.5177452758    0.0031903055
 C    0.0591852894    0.0144943678    0.0010022029
 C    1.1333809754   -0.6771949072   -0.8945859159
 C    1.1267759262   -1.8085605238    0.1764926763
 C    0.7154197265   -0.7198958063    1.2068779980
 C   -0.0818884944   -2.7287742063   -0.0568054806
 C   -1.2373288426   -1.8998034665   -0.6560532523
 O   -1.2401363333   -0.5426621500   -0.2213065377
 H    0.8565477210    2.0044763562    0.2294786429
 H   -0.4479027791    1.8696054075   -0.9719177853
 H   -0.8308416319    1.8215935489    0.7560348880
 H    0.8789935149   -0.9154861845   -1.9306487898
 H    2.0674280881   -0.1099501113   -0.8772362969
 H    2.0475271808   -2.3689465784    0.3520848587
 H    1.5777342855   -0.1730760106    1.5989639487
 H    0.0490937230   -1.0073739565    2.0249179442
 H    0.1651669041   -3.5420936620   -0.7488753409
 H   -0.3753799541   -3.1903092484    0.8932245600
 H   -1.1712261082   -1.9284339171   -1.7533736710
 H   -2.2135785189   -2.3119390174   -0.3841794146