18

 C   -0.0277918339    1.4302869392    0.2639597288
 C    0.1420610601   -0.0365750848    0.0279354210
 N   -0.7151311841   -1.0387105504    0.6478296974
 C    0.7410326265   -1.1247063463    0.9256364005
 C    1.3748744953   -1.8335318750   -0.2656858829
 C    0.7306193563   -0.7490300122   -1.2117281756
 O   -0.1926233102   -1.1667313380   -2.1732848145
 C    1.2394795770   -0.8613288647    2.2761141614
 O    0.5691534017   -0.3418313625    3.1458685246
 H    0.8408947776    1.9896525295   -0.0967554795
 H   -0.9103626998    1.8033700883   -0.2681983006
 H   -0.1556170131    1.6374672869    1.3308644601
 H   -1.1407645875   -0.6245290312    1.4794137407
 H    2.4670838603   -1.7987038167   -0.2668195309
 H    1.0354813128   -2.8583632231   -0.4337130956
 H    1.4848405175   -0.1478454093   -1.7246867093
 H   -0.9166624407   -1.5782429749   -1.6816872012
 H    2.3008239943   -1.1376338147    2.4516617055