15

 N   -0.0309313141   -1.1325051123   -0.0648276132
 C   -0.0408064019    0.0208288364    0.0002779290
 C   -0.0198086793    1.4776106666    0.0829236240
 C    1.4122574224    2.0310369373   -0.0686416284
 N    1.4158084061    3.4766575110    0.0024326248
 C    2.0072154323    4.2997640632    0.8954193140
 N    1.7578451786    5.5602539976    0.5973713717
 C    0.9852594420    5.4512928134   -0.5177715418
 N    0.7485375910    4.2131828265   -0.9209208290
 H   -0.6495331601    1.9019776484   -0.7046003156
 H   -0.4422997337    1.7916175089    1.0432866737
 H    2.0582369265    1.6539480008    0.7272180297
 H    1.8318198366    1.7171285386   -1.0280208893
 H    2.5993391067    3.9378575214    1.7229529362
 H    0.5887631270    6.3044443324   -1.0475569859