23

 C    0.1642548542    1.3285389786   -0.3504452390
 C    0.0232039010   -0.1016014492    0.1785716614
 O    0.5297648773   -0.2147140351    1.5098024452
 C   -1.4018067066   -0.6444822854    0.0748165048
 C   -2.4168260504    0.0702276983    0.9569810683
 C   -1.9844657416   -1.1448367844   -1.2259690761
 C   -0.9553726087   -1.8676303685   -2.1082604568
 C   -0.6611915118   -2.8566156816   -0.9334004734
 C   -1.6926113143   -2.1193728652   -0.0713750348
 H    1.2087865399    1.6469433198   -0.2930113534
 H   -0.1658396592    1.3955492157   -1.3920077150
 H   -0.4353240712    2.0356066006    0.2345147684
 H    0.6895544948   -0.7411054286   -0.4052430539
 H    0.0778267100    0.4393764345    2.0527042300
 H   -2.5185244938    1.1285168573    0.6941377636
 H   -3.4062179079   -0.3860873050    0.8582132984
 H   -2.1360984957    0.0045299454    2.0143339434
 H   -2.9412099942   -0.7745164801   -1.5785830389
 H   -1.4232004621   -2.3726174746   -2.9562491524
 H   -0.1202961721   -1.2708942275   -2.4894187877
 H   -0.9755066191   -3.8747418315   -1.1731870604
 H    0.3623878226   -2.8983607866   -0.5485307929
 H   -2.3930209914   -2.6064443266    0.5979837612