18

 O    0.1804708200    1.6756850240   -1.6976500994
 C    0.1562277347    1.6079933637   -0.4890159531
 C   -1.1403898110    1.4861010340    0.2952253663
 C   -1.4931726572    2.6885301768    1.1379534977
 C   -0.7080734655    3.5412367524    1.7944984238
 C    0.7882557612    3.6426245841    1.9268144415
 C    1.7012356643    2.5455533812    1.4269881232
 N    1.3784001834    1.1491247989    1.6914326691
 C    1.4359348029    1.6065976981    0.2877801829
 H   -1.9330331736    1.3056936164   -0.4351423405
 H   -1.0617384935    0.6041919472    0.9446067013
 H   -2.5640725985    2.8645166116    1.2104574533
 H   -1.2161466375    4.3363352458    2.3382654560
 H    1.1109291113    4.5790606803    1.4459903709
 H    1.0173337495    3.7889224702    2.9930375552
 H    2.7509744235    2.8272394016    1.5120790995
 H    2.2104567790    0.6139901499    1.9223955343
 H    2.2947818269    1.3428567736   -0.3246436918