16

 C   -0.1038989160   -1.1957242045   -0.2162964308
 C   -0.0581084228   -0.0058358277   -0.0564447842
 C    0.0269603857    1.4393065915    0.1496407627
 C    1.4341303782    1.9585865548    0.0933932841
 C    1.9395373016    3.3950118338   -0.1173511912
 C    3.1999215293    3.0473763855    0.7121979139
 C    2.7157467718    1.6571621333    0.9183297599
 N    3.6019708393    1.9687270012   -0.2594333292
 C    2.3417845496    2.2880067077   -1.0631414181
 H   -0.1511041634   -2.2462724453   -0.3628758472
 H   -0.5717592743    1.9574283338   -0.6117828870
 H   -0.4287407755    1.6967374628    1.1158659253
 H    1.3726850244    4.3011471540   -0.2788144987
 H    3.9277431426    3.6456945437    1.2470544115
 H    2.9686565891    0.8980913035    1.6488413954
 H    2.2397940105    2.1614392319   -2.1338167065