19

 C    0.6281664084    0.2082832542   -0.8490570309
 O   -0.0223301337    0.2287824793    0.4046958453
 C    0.5794898063   -0.5682694182    1.3907884404
 C   -0.1047821550   -0.2465917724    2.7237655124
 C    0.4258631564   -2.0694673990    1.0930231689
 O   -0.4024804296   -2.5021727744    0.3266750250
 C    1.3417716554   -3.0285211620    1.8089019018
 C    2.8099853083   -2.9120405834    1.6788032114
 O    2.1518590781   -2.5360902280    2.8795101549
 H    0.5748850517   -0.7786026527   -1.3247507174
 H    0.1145853748    0.9335260708   -1.4842094836
 H    1.6850566212    0.5068982083   -0.7577834684
 H    1.6541531787   -0.3332716728    1.4764367213
 H   -0.0159853115    0.8246375270    2.9195951020
 H   -1.1664587832   -0.5022436476    2.6677641614
 H    0.3617332556   -0.7990878133    3.5414342652
 H    0.9165920524   -4.0204824821    1.9531238034
 H    3.4100770317   -3.8185432717    1.7311728767
 H    3.2388566341   -2.0961504021    1.0994802803