18

 C    0.0179693202    1.5321887406   -0.1522650295
 C    0.0211342910    0.0173969768   -0.0020634288
 N    0.8210913251   -0.5859207260   -1.1337242839
 C    1.3478224700   -1.5994395769   -0.5933735666
 O    2.6723614091   -2.0055674462   -0.6031776138
 C    2.5777064869   -1.8304511152    0.8795622727
 C    2.3306810537   -0.3428587803    1.3486233966
 C    0.7502056010   -0.5311777224    1.2695825929
 C    1.0529501287   -1.9790512711    0.8473277187
 H    1.0388105558    1.9230831757   -0.1943576982
 H   -0.4895085901    1.8243883259   -1.0751725265
 H   -0.5000827816    1.9977308115    0.6933506604
 H   -1.0178353180   -0.3465418641   -0.0012418479
 H    3.3089398600   -2.4593448919    1.3830677312
 H    2.6566933036   -0.2174862169    2.3837048584
 H    2.7880398484    0.4328862622    0.7335733938
 H    0.2278265365   -0.3407347322    2.2090354153
 H    0.4867993800   -2.8760039795    1.0878910752