18

 C    0.2733514647    1.5254035830    0.0683497937
 C    0.1331713669    0.0173645163   -0.0189216912
 C    0.7712778204   -0.6506329430   -1.2576408606
 C    1.2534919008   -1.9961537713   -0.7256926631
 C    2.5161621736   -1.9708654795    0.1286282719
 O    3.3295515253   -0.8432710191    0.1613422547
 C    1.1627760235   -1.8976800986    0.7806036108
 O    0.8001733215   -0.5794931717    1.1189146708
 H    1.3254993561    1.8208161653    0.0017587504
 H   -0.2690698883    2.0028896385   -0.7535953484
 H   -0.1339988862    1.8998481201    1.0114633121
 H   -0.9307447423   -0.2608185549    0.0347342700
 H    0.0479031243   -0.7693357573   -2.0678229558
 H    1.6097372437   -0.0517639042   -1.6293373861
 H    0.9966416089   -2.9096514914   -1.2486344028
 H    3.0773018889   -2.8983383231    0.2043500187
 H    2.8841641881   -0.2190065569    0.7527367568
 H    0.7654753301   -2.6676607321    1.4343874281