18

 C   -0.1421787374    1.5759441589   -0.0795758288
 C   -0.0230115615    0.0722577528    0.0516233849
 N    1.1847901899   -0.5818816783   -0.6458764403
 C    2.0880077968   -0.2491161276    0.5685285868
 C    2.5564551925   -1.6963476139    0.6616152439
 O    2.9343758832   -2.0694364576    1.9735834478
 C    1.0676119400   -1.7926286605    0.3066040066
 C    0.6973059146   -0.5734158940    1.2248395030
 O    0.3177462230   -0.5390126503    2.5457725258
 H    0.7718977662    2.0895656108    0.2323258406
 H   -0.3519580132    1.8527786252   -1.1176801123
 H   -0.9634113776    1.9453377676    0.5429687549
 H   -0.9543610890   -0.4236428692   -0.2494659765
 H    2.6756191737    0.6674410024    0.6050688436
 H    3.2715835174   -2.0351866712   -0.0974645847
 H    3.0755877458   -3.0213754142    1.9906426924
 H    0.4481616983   -2.6496939794    0.0356479451
 H    0.9980556973   -1.0157765916    3.0396302771