25

 C   -0.3527342330    1.5346295846    0.0239048274
 C   -0.0471334571    0.0285765188    0.0037006786
 C    0.6456216521   -0.3441540779   -1.3201644446
 C    0.7271001667   -1.8377633781   -1.6631269961
 C    1.6384245822   -2.7281667861   -0.8345471560
 C    2.8813858331   -2.2343833263   -0.1281941499
 C    1.7004119856   -2.7358018930    0.6727966648
 C    0.8605694023   -1.8542080137    1.5823712182
 C    0.7518208502   -0.3572414087    1.2623806542
 H    0.5728208110    2.1223213400   -0.0111706595
 H   -0.9638042328    1.8301191695   -0.8353185036
 H   -0.8910817498    1.8211473229    0.9333413798
 H   -1.0073216850   -0.5090991389    0.0404605401
 H    0.0937590090    0.1403609176   -2.1355549865
 H    1.6491036089    0.1029619087   -1.3413616742
 H   -0.2889469976   -2.2582027291   -1.6384826693
 H    1.0518978219   -1.9186857943   -2.7091829459
 H    1.7395203417   -3.7155173661   -1.2805495560
 H    3.7795611122   -2.8414631973   -0.1682035541
 H    3.0787663688   -1.1686159042   -0.1309055971
 H    1.8373889467   -3.7275684350    1.0989843106
 H   -0.1542423469   -2.2748053289    1.6369966852
 H    1.2701373470   -1.9455645732    2.5973504686
 H    1.7538394980    0.0900588229    1.2056365078
 H    0.2689682144    0.1187683959    2.1251879177