16

 O   -0.0371825960   -0.0289762661   -0.2897434127
 C   -0.0054844118    1.1395429238   -0.0409740209
 O   -1.1243317300    1.9089381732    0.1385526966
 C   -0.6566754134    3.2097105169    0.5692937883
 C    0.0586420113    2.9817777675    1.9294300991
 N    1.4527967988    2.7291749847    1.4591959859
 C    1.6599360321    4.0174570333    0.6785142286
 C    0.6041072367    3.4828358759   -0.2974666487
 C    1.1720664430    2.0900441116    0.0662429724
 H   -1.4917936771    3.9042458500    0.5207675816
 H    0.0478782846    3.8466578539    2.5960675655
 H   -0.3546438818    2.1173580453    2.4523466266
 H    1.4737319735    4.9340673431    1.2448268477
 H    2.6644328236    4.0380894164    0.2502445383
 H    0.4516428908    3.8266685744   -1.3207074216
 H    2.0924143058    1.7389176163   -0.3920490867