17

 N   -0.2229031067    1.3998824987   -0.1358944234
 C   -0.0510629325    0.1733817484    0.1026304225
 C   -1.1437169371   -0.8540635746   -0.0940811740
 N   -1.7882026318   -1.2789185715    1.1519309624
 C   -0.8615091687   -1.4566767627    2.2712557175
 C    0.3607879787   -2.2691134717    1.8515971488
 C    1.4452969795   -1.5452663163    1.0623335855
 O    2.5533701979   -1.9754847480    0.9401041011
 O    1.1810226404   -0.2919505325    0.5366433883
 H    0.6234827369    1.9329506561    0.0760451339
 H   -1.8971839740   -0.4137958429   -0.7470063773
 H   -0.7272774363   -1.7279494428   -0.6102672795
 H   -2.4863580572   -0.5892051646    1.4073658497
 H   -0.5191915330   -0.5020977414    2.7065341536
 H   -1.3870228056   -1.9953615193    3.0666309176
 H    0.8761672405   -2.6618672827    2.7321060206
 H    0.0510454790   -3.1450013023    1.2691328525