22

 C   -0.1933782197    1.4541344222   -0.1951134820
 C   -0.0404717963   -0.0324692905   -0.1349573320
 C    0.0500196208   -0.8817373472   -1.1612974839
 C    0.1410655012   -2.3206233935   -0.7199857434
 C    0.4462006990   -2.2014257931    0.7955717559
 C   -0.0204521363   -0.7775561281    1.1840821761
 N   -0.2201453699   -3.2351613317    1.5780444392
 C    0.4852221295   -4.5071031632    1.7010775630
 C    0.3945509740   -3.5745492196    2.8577071793
 H    0.6225973484    1.9604003212    0.3368042439
 H   -0.2047240789    1.8180373072   -1.2263316678
 H   -1.1242385026    1.7767923771    0.2894213605
 H    0.0214384658   -0.5900091227   -2.2063842911
 H   -0.8113057028   -2.8481434876   -0.8690011537
 H    0.9063089265   -2.8940800237   -1.2557864363
 H    1.5421588365   -2.2536407743    0.9299619718
 H    0.6322477804   -0.3089185100    1.9306370456
 H   -1.0258053761   -0.8188310691    1.6264858539
 H   -0.1333822363   -5.3989316955    1.6588410636
 H    1.4552790682   -4.6019268477    1.2149680435
 H    1.3043856566   -3.0481062931    3.1429178958
 H   -0.2913829582   -3.7728221472    3.6762830679