17

 O   -0.1678160109    1.5098656634   -0.3313236734
 C    0.0420646802    0.1257402025   -0.1462391023
 C   -1.2413170548   -0.5620857739    0.2773666051
 O   -2.2346333884   -0.4815427515   -0.8222344108
 C   -2.3148448426   -1.8454426513   -0.9008195696
 O   -2.9124335754   -2.5052597201   -1.6942905399
 C   -1.3608919469   -2.1053637316    0.2587399432
 C   -0.2016711632   -3.0415391610   -0.1042035201
 O   -0.6971867903   -4.3417175525   -0.3407016456
 H   -0.8377662420    1.6059499587   -1.0182845055
 H    0.4429811698   -0.3488759317   -1.0539489976
 H    0.7909593069    0.0214347543    0.6465173169
 H   -1.6558462568   -0.0770428740    1.1640882034
 H   -1.8808341902   -2.5080246728    1.1315732289
 H    0.3513084316   -2.6539288942   -0.9727986958
 H    0.5045317156   -3.1189930545    0.7282690643
 H   -1.3634729926   -4.2772565898   -1.0373274413