16

 C    0.0001072403    1.4859309265   -0.0382380705
 N    0.0081924725    0.0257219694   -0.0297379288
 C    0.7295459825   -0.5260225636    1.1214810817
 C    2.1437926450   -0.1661852725    1.1261794310
 C    3.3093266266    0.1223377914    1.1551081225
 C   -1.3350997329   -0.5334997140   -0.0903578767
 C   -2.0110203288   -0.2051706992   -1.3507861021
 N   -2.5614058239    0.0525284967   -2.3328368591
 H    1.0291554265    1.8491744384   -0.0323725820
 H   -0.4893764923    1.8432072693   -0.9472872340
 H   -0.5275169295    1.9132946614    0.8350360272
 H    0.2759199919   -0.2093367028    2.0824355680
 H    0.6422772347   -1.6191617995    1.0834725828
 H    4.3413211642    0.3729813507    1.1729757083
 H   -1.2713707204   -1.6254157638   -0.0189094617
 H   -1.9874125562   -0.1963093584    0.7399569434