18

 C   -0.0736705505    1.4785508349   -0.0051543431
 O    1.1588150155    0.7562533896   -0.0789863076
 C   -0.0702504829    0.0110029226    0.0120194533
 C   -0.2902005065   -0.7405750615    1.3167476212
 C    0.1631078828   -2.1783970231    1.2389212382
 C    0.1860674596   -2.8616708700    0.0946872335
 C   -0.2309867096   -2.2393889485   -1.1868604974
 N   -1.5780852570   -1.6017811140   -1.2082218348
 C   -0.3769699484   -0.7558104546   -1.2375117008
 H   -0.2404962440    2.0271046645    0.9217298552
 H   -0.3614992498    2.0115684450   -0.9112135272
 H    0.2404613163   -0.2084749105    2.1124627964
 H   -1.3588659488   -0.7095366069    1.5672324368
 H    0.4566195616   -2.6580180771    2.1681040195
 H    0.5119220219   -3.8971276801    0.0705932588
 H    0.0880076234   -2.7380845604   -2.0975544414
 H   -1.9714970672   -1.6659047481   -2.1439668535
 H   -0.1113268364   -0.2433570720   -2.1587033170