11

 C    0.0245892749   -1.1698591092   -0.0037664905
 C   -0.0017959254    0.0316947685    0.0030101689
 C   -0.0342134782    1.4601083802    0.0110739904
 N   -1.2398959657    2.0585877067    0.0302647372
 C   -1.2016034550    3.3810920330    0.0368257658
 C    0.0157189331    4.0617316191    0.0243221506
 N    1.1756251356    3.4073184944    0.0054431770
 N    1.1591636660    2.0826835674   -0.0014198243
 H    0.0498287111   -2.2321101512   -0.0097781765
 H   -2.1513574162    3.9107868137    0.0522596614
 H    0.0749939999    5.1450027775    0.0293295300