17

 C   -1.4321323673    2.5358564095   -2.2545712260
 C   -0.8474461225    2.0945955194   -1.3021050347
 C   -0.1454884980    1.5789003087   -0.1302715837
 N    1.2009940703    2.1618867075   -0.0360199589
 C    1.9057287024    2.1215788736    1.3141432438
 C    2.8061130014    3.2503481908    0.7494966777
 C    1.3346172138    3.6098936163    0.4163421881
 C    0.9651811513    3.2263115305    1.8783017268
 H   -1.9472449075    2.9156237816   -3.1017417849
 H   -0.7875977535    1.7276240237    0.7531224059
 H   -0.0132420663    0.4938770102   -0.2321994074
 H    2.2091058287    1.1785509682    1.7726534265
 H    3.3165766631    3.8839944476    1.4761490761
 H    3.4269209353    2.9744650903   -0.1027178461
 H    0.9573177012    4.4306883912   -0.1938755574
 H   -0.0700098178    2.9578629097    2.0881692798
 H    1.3640772854    3.8594727713    2.6754255145