19

 C    0.1375214943    1.2545345011    0.2585824475
 O   -0.1594261412   -0.1079385295   -0.0059622933
 C    0.5812779667   -0.6714256455   -1.0839246912
 C    1.9844120353   -0.9689988893   -0.5449425179
 O    2.8829052735   -0.1692387536   -0.5686717698
 C   -0.1763842975   -1.9218105516   -1.5324819590
 C   -1.5856441524   -1.6076212714   -2.0600813272
 C    0.6187067810   -2.7142601491   -2.5473497882
 O    1.7668005068   -2.4896722671   -2.8414511178
 H    1.1915899942    1.4052318810    0.5188726135
 H   -0.1003300955    1.8853694403   -0.6101278329
 H   -0.4911680262    1.5505113103    1.1012423879
 H    0.6776105948    0.0465289533   -1.9115087332
 H    2.0847180946   -1.9442980043   -0.0174630155
 H   -0.2862236390   -2.5808442331   -0.6552018561
 H   -2.1546573511   -1.0783774492   -1.2946241933
 H   -1.5391972963   -0.9756904760   -2.9533960685
 H   -2.1224655108   -2.5246466410   -2.3215498615
 H    0.0613022387   -3.5531271752   -3.0219317135