17

 C   -0.0345901741    1.4447775661   -0.0007630953
 N   -0.0139720493    0.0007056120    0.0004881497
 C    0.0080234340   -0.8027077406   -1.1302949445
 C    0.0021634086   -2.1180062059   -0.7224073368
 N   -0.0752617181   -3.2665132242   -1.5383065447
 C    0.0059918993   -2.1176888587    0.7024839326
 C    0.0020183512   -0.7988982091    1.1138400620
 N   -0.0552540533   -0.2160077047    2.3997102591
 H    0.9575695440    1.8731852817   -0.1944814440
 H   -0.7220503592    1.8070879206   -0.7709064337
 H   -0.3804978560    1.7865786683    0.9762467210
 H    0.0195757556   -0.3666247251   -2.1162058410
 H    0.2188151603   -3.0774529313   -2.4886734528
 H    0.4903337624   -4.0249700432   -1.1765442827
 H    0.0062343699   -2.9826469484    1.3492797836
 H   -0.4507448876   -0.8695355303    3.0645342730
 H    0.8610158823    0.0545567429    2.7466831045