16

 O    0.0092587549   -0.0101355125   -0.5495152819
 C   -0.0296621599    1.0862276563   -0.0604810088
 C   -1.3529409061    1.8318263141    0.1166947859
 C   -1.6392184878    2.4592025065    1.4603667754
 C   -0.8744281324    3.4104335103    1.9873868226
 C    0.3881502221    3.8704554064    1.3034496722
 C    1.4123387049    2.7447960968    1.1620366725
 O    1.1459685369    1.7113539267    0.2000911562
 H   -1.3642920706    2.6131068481   -0.6586561130
 H   -2.1226702307    1.1089231866   -0.1526191744
 H   -2.5303058623    2.1180589294    1.9782448748
 H   -1.1324722991    3.8536723202    2.9445419713
 H    0.1709107506    4.2906939305    0.3112370496
 H    0.8693674860    4.6682876785    1.8783871345
 H    2.3724186747    3.1535598685    0.8338091632
 H    1.5642921089    2.2648127034    2.1365080898