14

 C    0.0268022990    1.5342991708    0.0410326645
 C   -0.0296689635    0.0393124149    0.0360465106
 C   -1.1849260678   -0.6693177214   -0.0829759978
 O   -2.4064860882   -0.1103965627   -0.2096035352
 C   -1.1684358267   -2.1213528900   -0.0804272610
 O   -2.1567783175   -2.8097315156   -0.1822162421
 O    0.0763574907   -2.6984767677    0.0486066926
 C    1.1697899064   -1.9053597766    0.1611875595
 N    1.1799036991   -0.6322243449    0.1614922095
 H    0.6613654291    1.8891574315   -0.7782591523
 H   -0.9679326746    1.9686444992   -0.0617686808
 H    0.4809007867    1.8901003208    0.9721786244
 H   -3.0293727554   -0.8536268135   -0.2735324376
 H    2.0732627827   -2.4969604250    0.2549357157