16

 C   -0.5055886179    0.7927532997   -0.4360386577
 O    0.6159431589    0.9861182645    0.4128338062
 C    0.7765711498    0.0266008540    1.3454074535
 C    0.1148976354   -1.1205463526    1.6936014211
 N    0.7615493296   -1.7170723886    2.7644861057
 C    1.7845897022   -0.9531773106    3.0556841265
 C    2.7804194407   -1.1854770890    4.1407910558
 N    1.8386719144    0.1342498099    2.2107365838
 H   -1.4375287169    0.7831043104    0.1428393462
 H   -0.5147475355    1.6302797464   -1.1344136029
 H   -0.4191609491   -0.1503191905   -0.9899740944
 H   -0.7691616261   -1.5510339258    1.2533118078
 H    3.7996190350   -1.2914410435    3.7498180809
 H    2.7917190314   -0.3684219633    4.8723338094
 H    2.5139059826   -2.1073151144    4.6594946026
 H    2.5132259155    0.8809176734    2.2039350354