15

 N    0.0726505386    1.3817945726    0.1176181379
 C   -0.0370182795    0.0088449340    0.0492999179
 C   -1.1961016505   -0.6846958683    0.0021807370
 N   -2.4355204646   -0.0019174005   -0.0604828137
 C   -1.1508678424   -2.1351743150   -0.0649423380
 N   -2.2317912525   -2.8146856511   -0.1785145669
 N    0.1343759110   -2.7297518600   -0.0153000219
 C    1.1526044322   -1.9801086212    0.0643995550
 O    1.1761530075   -0.6224608195    0.1010527844
 H    0.9397873471    1.7392565692   -0.2614219020
 H   -0.7447719334    1.8344210519   -0.2762329183
 H   -2.6655119229    0.4415896501    0.8246707727
 H   -3.1536928493   -0.6974361123   -0.2509264373
 H   -2.0070984048   -3.8083165354   -0.2286962465
 H    2.1634839234   -2.3723610744    0.1176554995