19

 C   -0.0374300445    1.5649705485    0.0649530423
 C    0.0109812067    0.0272538935    0.0027457585
 C    0.6773051682   -0.4775284316   -1.1942645304
 C    1.2381654145   -0.8660126149   -2.1879666002
 C    1.8971368660   -1.3585872254   -3.3990530892
 C    1.9693368020   -2.8986581705   -3.4050401123
 C    1.2000817891   -0.8276034692   -4.6675090076
 H    0.9718951501    1.9855160797    0.0592187638
 H   -0.5756429223    1.9714189236   -0.7957323758
 H   -0.5441477524    1.8957613348    0.9766847150
 H    0.5216728840   -0.3575791967    0.8952246055
 H   -1.0109300629   -0.3715176625    0.0485490408
 H    2.9283986751   -0.9774100711   -3.4020245068
 H    2.4905566112   -3.2712089118   -2.5192855751
 H    0.9637858531   -3.3307989644   -3.4122422277
 H    2.5013334660   -3.2514738179   -4.2946382642
 H    1.1744605677    0.2652706122   -4.6736870666
 H    1.7296920724   -1.1670304571   -5.5637545751
 H    0.1687851260   -1.1903978691   -4.7201010949