15

 O    0.1212085550    1.4698494538   -0.3009762453
 C    0.0358832184    0.1134099590   -0.0820428241
 C   -0.0797208914   -0.3766204494    1.3823330715
 O   -1.1746783154   -1.2507054793    1.0481205570
 C   -1.3668385504   -0.6163987564   -0.2393752793
 C   -2.5115311663    0.2698843490   -0.3059342905
 C   -3.4616905315    1.0028312008   -0.3664678005
 C    1.0959653092   -0.6298353467   -0.8628874545
 O    1.8518929243   -0.0530156293   -1.6055878993
 H    0.7991244882    1.5909928781   -0.9865219408
 H    0.7664477758   -0.9213336046    1.8149624537
 H   -0.3794308165    0.4421392123    2.0468218942
 H   -1.4237675161   -1.3706122383   -1.0340720107
 H   -4.3016572076    1.6510391094   -0.4183785712
 H    1.1299049243   -1.7279357785   -0.7180645602