21

 C    0.0053260484    1.5084268704    0.3759150329
 C    0.0022218144    0.0168618249    0.0987528835
 C    0.9645795431   -0.5337089340   -0.9295226314
 C    1.1947652230   -0.7910277091    0.5408494427
 C   -1.3588081055   -0.6684263197    0.1904314131
 O   -1.9315797185   -0.5623718524    1.4819731919
 C   -2.3332041355   -0.1335923002   -0.8540065247
 C   -3.7811150540   -0.3041393495   -0.7079746125
 O   -3.1555271675    0.9541409301   -0.4029247769
 H    1.0184573574    1.9143763970    0.2996697062
 H   -0.6301072364    2.0567482340   -0.3276171101
 H   -0.3592373099    1.7143035638    1.3878350457
 H    0.6450424303   -1.3681086804   -1.5468889107
 H    1.6189642669    0.1649225789   -1.4399203995
 H    2.0089618810   -0.2673385668    1.0301656759
 H    1.0243147791   -1.7939151765    0.9181425576
 H   -1.2135559836   -1.7406413537    0.0013736219
 H   -2.4120278614    0.2775651708    1.4870736076
 H   -1.9228919140    0.0010294138   -1.8542732861
 H   -4.4178766755   -0.2966668547   -1.5902577601
 H   -4.1637782716   -0.8443938268    0.1544078729