21

 C    0.0192579252    1.5778342837   -0.0328819385
 C    0.0886278535    0.0526147150   -0.0250835991
 C    0.8357758186   -0.5759658542   -1.2304926126
 C    1.2600857458   -1.9596303247   -0.7445700403
 C    2.5289824043   -2.0460399260    0.0824643954
 C    1.2092833270   -1.9619322415    0.7742910276
 O    0.8263637043   -3.0755674406    1.5240703000
 C    0.7537454096   -0.5703598162    1.2345641840
 O    1.8788369367    0.1682315666    1.7022218102
 H    1.0233097467    2.0138621540   -0.0074205267
 H   -0.4762603551    1.9445679748   -0.9374354856
 H   -0.5445700617    1.9632280841    0.8255641044
 H   -0.9354275191   -0.3465046481   -0.0430044997
 H    0.1917081103   -0.6283181542   -2.1133416820
 H    1.7036813256    0.0348290643   -1.5077232594
 H    0.9614597782   -2.8423300604   -1.2991826938
 H    3.0111198998   -3.0161987417    0.1301254427
 H    3.1933568230   -1.1908924100    0.1257167221
 H   -0.1255867711   -3.1895885985    1.4283332515
 H    0.0236621163   -0.6874620340    2.0486423624
 H    1.5615098821    1.0177982876    2.0240594874