18

 C    0.1733711911    1.4528779245    0.2277679865
 N    0.1825504392    0.0032538574    0.1046526836
 C   -1.0360353939   -0.7897551499    0.5364572573
 C   -0.0745954501   -2.0301567540    0.4742467939
 O    0.4031121205   -2.4410747970   -0.7531176676
 C    0.6744373183   -0.8854861666    1.2409856827
 C   -0.6369507030   -0.6686404984    2.0410241028
 C   -0.8644476703    0.5372508669    2.9114572909
 O   -0.0197963265    1.0240310385    3.6220803632
 H    1.2056620601    1.8156098164    0.2437326475
 H   -0.3173082444    1.8695690793   -0.6581920252
 H   -0.3364739646    1.8576982546    1.1132294834
 H   -2.0119132527   -0.6530906838    0.0671600162
 H   -0.3626973510   -2.9043690111    1.0589941677
 H    0.6403701391   -1.6130490186   -1.2023206775
 H    1.7032860980   -0.8483745844    1.5982923186
 H   -0.9591984550   -1.5330905280    2.6430495643
 H   -1.9134932349    0.9150441342    2.9239251317