23

 C   -0.0811839383    1.5694883483    0.1776144395
 C    0.0397384315    0.0796738603    0.0329544626
 C   -0.8270791304   -0.8918373487    0.7865509570
 C    0.6664859261   -0.9657902147    0.9642859367
 C    1.3032162143   -1.6945926744   -0.2302053991
 C    0.6480890095   -0.6348532074   -1.1846247090
 C    2.8096687193   -1.6968601531   -0.2425896532
 C    3.5778431336   -2.8495690986    0.3551351454
 C    3.5675003688   -2.6422102060   -1.1404762525
 H    0.8608564185    2.0735578087   -0.0685691477
 H   -0.8547720382    1.9739248684   -0.4873361614
 H   -0.3511718636    1.8473327789    1.2020481497
 H   -1.3743236628   -0.4700338467    1.6246476579
 H   -1.3576926972   -1.6886975500    0.2675549355
 H    1.1365495567   -0.8312424443    1.9327191223
 H    0.9404450488   -2.7216749413   -0.3701649323
 H   -0.0610873662   -1.0053026441   -1.9332493442
 H    1.4073364173   -0.0343396324   -1.6943696008
 H    3.2541772811   -0.7128295088   -0.1073287711
 H    4.4920447220   -2.6383258847    0.8989813587
 H    3.0083528492   -3.6834310057    0.7530586378
 H    2.9924289455   -3.3378634470   -1.7432015114
 H    4.4745734745   -2.2883959367   -1.6179699004