25

 C   -0.1332473459    1.5584398170    0.0518035983
 C   -0.0308438222    0.0352687055   -0.0798434484
 C    0.8170364115   -0.4518400891   -1.2705786017
 C    2.2955961948   -0.0554219071   -1.1441097560
 C    0.6781066787   -1.9656666724   -1.4309043196
 C   -0.7030851353   -2.5868952669   -1.7941465270
 C    0.0362104500   -3.5974513096   -2.7115677059
 C    1.2769920363   -2.6632172361   -2.6878733091
 O    1.3061761439   -1.7450020571   -3.7698044505
 H    0.8401185884    2.0199825498    0.2438390783
 H   -0.5375479739    2.0064990398   -0.8630376041
 H   -0.7957020969    1.8366992043    0.8778320563
 H    0.3802429442   -0.3862740125    0.8486757450
 H   -1.0429468439   -0.3777092371   -0.1761315426
 H    0.4212457216    0.0117576926   -2.1835081338
 H    2.4198293820    1.0287800847   -1.0686501188
 H    2.7488552544   -0.5040560763   -0.2509262626
 H    2.8584093060   -0.3910752723   -2.0191222412
 H    1.0798664226   -2.4644419058   -0.5392160772
 H   -1.3076926473   -2.9945211852   -0.9809808010
 H   -1.3153147610   -1.8885052861   -2.3715158769
 H    0.2332366085   -4.5493868762   -2.2098064364
 H   -0.3937055514   -3.7996652797   -3.6967831716
 H    2.2559836300   -3.1461074304   -2.5651468703
 H    1.4712293948   -2.2440553635   -4.5759320430