15

 C    0.0503187773    1.4657148553   -0.0336240195
 N   -0.1066409687    0.0205275550   -0.0926065328
 C    0.5472683604   -0.6943556748   -1.0576080341
 N    1.1369172707   -0.1027090466   -2.1014982477
 N    1.5940157620   -1.1492621109   -2.8073580028
 N    1.3752098836   -2.3430381766   -2.3315069705
 C    0.6946125467   -2.1093841010   -1.1930348908
 C    0.2180155590   -3.1681730114   -0.3101698713
 O    0.3815936802   -4.3553714545   -0.4695097153
 H    1.0888660717    1.7763493198    0.1451933276
 H   -0.2732444485    1.9072013698   -0.9792093193
 H   -0.5824000140    1.8533841215    0.7672114116
 H   -0.2044439758   -0.4454773447    0.7944966638
 H    2.0924555063   -1.0092930679   -3.6722005276
 H   -0.3448722911   -2.7859175831    0.5741180888