21

 C   -0.0894724261    1.5732303667    0.0410297241
 C   -0.0485662085    0.0555890276    0.0260467740
 C   -1.3159475084   -0.5624917490   -0.5278576098
 O   -1.4507012996   -0.1384264833   -1.8814024986
 C    1.2435346410   -0.6538774321   -0.2747515056
 C    0.6833526939   -0.7060201722    1.1441090119
 C    1.4044060741    0.0561336841    2.2511610988
 C    0.1320586544   -1.9569243029    1.6029233830
 C   -0.3025864915   -2.9894531281    2.0439921400
 H    0.8773783193    2.0196734749    0.2805262703
 H   -0.3884974368    1.9287351339   -0.9486912050
 H   -0.8232841476    1.9426699753    0.7671220704
 H   -1.2654725479   -1.6561190514   -0.4584533551
 H   -2.1780659219   -0.2326029382    0.0747520866
 H   -2.2920186136   -0.4663700480   -2.2116685668
 H    1.2063775818   -1.5608891610   -0.8671241010
 H    2.1362434341   -0.0544938284   -0.4223665542
 H    1.8909172430    0.9569768779    1.8728573187
 H    0.7090027706    0.3482289390    3.0443495791
 H    2.1743052260   -0.5791660523    2.6993139557
 H   -0.6883507062   -3.9048331826    2.4184974135