17

 C   -0.3003586723    1.4828675089   -0.0322918552
 C    0.0797889878    0.0079861922    0.0280488292
 C    1.0074491746   -0.4652613926   -1.0997440797
 O    1.6069581459   -1.6807120866   -0.6185651734
 C    1.5591315615   -1.7353694376    0.7409422670
 N    1.9816832025   -2.6747214961    1.4626580348
 C    0.8770301082   -0.4699736013    1.2721748049
 C    1.8761091756    0.5052748330    1.7131549134
 N    2.6530981664    1.2961144727    2.0396327817
 H    0.5824218928    2.1251050736    0.0340772378
 H   -0.8165015683    1.7049337558   -0.9716125244
 H   -0.9735622949    1.7496693975    0.7874627033
 H   -0.8270231083   -0.6069117065   -0.0034381883
 H    0.4821112180   -0.6950051285   -2.0289897928
 H    1.7969292566    0.2681343210   -1.3071107002
 H    2.3989446345   -3.4139006719    0.8946018194
 H    0.2399503594   -0.7236551137    2.1215552525