14

 C    0.0282923194    1.3861353959   -0.0875319337
 N    0.0587689520   -0.0523693578    0.0132116718
 N    0.1248832459   -0.8271072293   -1.1197852028
 C    0.1349989167   -2.0661801917   -0.6603859301
 O    0.1952414626   -3.1258285335   -1.4935182367
 C    0.0778965046   -2.1456424226    0.7478996384
 C    0.0297719768   -0.8158955888    1.1245160827
 O   -0.0355486889   -0.2094534796    2.3307294394
 H    0.9309505711    1.7523288650   -0.5859738542
 H   -0.8455575321    1.7094444224   -0.6613290565
 H   -0.0244428726    1.8040073178    0.9180875741
 H    0.2248708068   -2.7705833676   -2.3911776154
 H    0.0703636914   -3.0210266350    1.3743412994
 H   -0.0480835738   -0.8867834851    3.0136978437