19

 C   -0.1322925635    1.5381848446    0.0311381804
 C    0.0503611483    0.0215989512    0.0146722447
 C    0.7484498748   -0.5047421724   -1.2606569683
 C    0.8809799817   -2.0317321914   -1.2622651689
 C    1.6872311903   -2.5313297284   -0.0487977775
 C    1.1284276786   -1.9953217589    1.2573251590
 O    0.9512031589   -2.6591928219    2.2475046499
 C    0.7870838930   -0.4803460558    1.2524617437
 O    1.1028656759    0.2167182429    2.1845792191
 H    0.8355340973    2.0459716480   -0.0231504642
 H   -0.7391579660    1.8611512507   -0.8198260685
 H   -0.6193358337    1.8637333987    0.9528094623
 H   -0.9394372383   -0.4645453461    0.0560578263
 H    0.1811114850   -0.1732244789   -2.1368437875
 H    1.7429646136   -0.0450426868   -1.3417737700
 H   -0.1177148762   -2.4865737042   -1.2481514069
 H    1.3642731113   -2.3693638231   -2.1845273545
 H    1.7364981934   -3.6217710565    0.0097229561
 H    2.7190311457   -2.1566642316   -0.1300905752