18

 C    0.3662806727    1.4117693704    0.3900394919
 N   -0.1847635054    0.1829725525   -0.1917050195
 C    0.5789771146   -0.4025341131   -1.2305295903
 C    0.2690187220   -0.3225268326   -2.5638514539
 N   -0.7388913383    0.3464507044   -3.2083867170
 O    1.1661341344   -0.9758202290   -3.3007913106
 N    2.1368272072   -1.5505780817   -2.4311808566
 C    1.7735436649   -1.1872320245   -1.2239737480
 C    2.5818980228   -1.6311403003   -0.0467735851
 H    1.3615317793    1.2900510679    0.8457950472
 H    0.4484184388    2.1723189774   -0.3916926696
 H   -0.3196145862    1.7849283801    1.1570461201
 H   -0.3883529604   -0.4882482529    0.5400581229
 H   -1.5085674969    0.5592814638   -2.5872977309
 H   -1.0292313558   -0.0640489941   -4.0846495398
 H    3.0163112776   -0.7750858237    0.4801455235
 H    1.9628416405   -2.1782142411    0.6728072845
 H    3.3920740681   -2.2850319634   -0.3751451387