20

 C    0.2288707420    1.5886563378    0.1131487954
 C    0.1199678001    0.0678824980    0.0991423532
 C    0.6161405854   -0.7160671351   -1.1560786726
 C    1.6828530178   -0.0756568301   -2.0641582125
 C    2.7335435320   -0.6163326801   -1.0623621280
 N    1.6879814828   -1.4339713030   -0.3472312117
 C    1.1621752167   -0.7851726129    0.8950562644
 C    2.1721721201   -0.1683621014    1.8268707249
 O    1.9743229318    0.7969236785    2.5217826203
 H    1.2362426506    1.9415067118   -0.1246406662
 H   -0.4612080441    2.0228351830   -0.6186682079
 H   -0.0213423024    1.9817821975    1.1009152195
 H   -0.9038968815   -0.2110312959    0.3630182609
 H   -0.1396191335   -1.3423345918   -1.6382482773
 H    1.7379520654   -0.5498861419   -3.0463547735
 H    1.6375305627    1.0060272932   -2.2036733842
 H    3.5269714208   -1.2399128483   -1.4829072698
 H    3.2050870876    0.1570749763   -0.4439060985
 H    0.6620139164   -1.5539055880    1.5051506811
 H    3.1411107293   -0.7194336878    1.8652617225