18

 O    0.0806830926   -0.0858079811   -0.0727278218
 C    0.0477198063    1.1168976478    0.0014348669
 C    1.2618873529    2.0071515498    0.0398750057
 C    1.2633559134    3.1270097397   -1.0661812041
 C    1.4150769104    4.3725907220   -0.1705924508
 C    2.4776220936    3.9045004468    0.8636274012
 C    1.3404338165    2.9293003706    1.2892082584
 C    0.3659447056    4.0952031551    0.9419020270
 H   -0.9292132413    1.6534251473    0.0461894511
 H    2.1392380060    1.3589266050   -0.0277753586
 H    2.0902539648    2.9955435549   -1.7684171794
 H    0.3333417863    3.1462609575   -1.6445400075
 H    1.4817269885    5.3374832951   -0.6733458167
 H    3.4128106361    3.4755110805    0.4913459083
 H    2.6836871566    4.6578727645    1.6273675914
 H    1.3349393469    2.4376406441    2.2621264955
 H    0.3628892003    4.8645716467    1.7171070519
 H   -0.6605116055    3.8659898736    0.6439013216