16

 C   -0.2300228149    1.7502156507    0.3140317773
 C   -0.1374977286    0.2651589772   -0.0410087898
 O    0.4315978124    0.1887901698   -1.3550354880
 C    0.3089987721   -0.9941768664   -2.0008792547
 N    0.8372027440   -1.1412165113   -3.1349617033
 C    0.6563229335   -0.4821823316    0.9348999180
 C    1.3003677266   -1.0942498600    1.7530148916
 C    2.0971717373   -1.8305983947    2.7035704304
 O    1.8097164662   -1.9681356751    3.8696170626
 H    0.7666350561    2.1962573283    0.3219003693
 H   -0.8409647887    2.2607218705   -0.4335881414
 H   -0.6832980326    1.8736670065    1.2999307681
 H   -1.1498488186   -0.1649194245   -0.0618904134
 H   -0.2752161584   -1.7408313759   -1.4464762710
 H    0.6399141185   -2.0726725206   -3.4948974739
 H    3.0179099651   -2.2730392827    2.2735162082