18

 N   -0.1176125053   -1.1534607494    0.0168230587
 C   -0.0728093264    0.0009890243    0.0174426507
 C    0.0078954394    1.4587697856    0.0164315504
 C    1.4531883020    1.9630487154   -0.1457392907
 N    1.4666010253    3.4196931832   -0.1135854705
 C    2.8064832789    3.9912454894   -0.1460867012
 C    2.7173334735    5.5194137527    0.0158588423
 C    4.0324454337    6.1535464781    0.0165871058
 N    5.0812077296    6.6381664317    0.0157239750
 H   -0.6191747519    1.8406114264   -0.7985855056
 H   -0.4107794252    1.8487699277    0.9497195788
 H    2.0557612355    1.5951005830    0.6916092870
 H    1.8900940810    1.5344763014   -1.0636971401
 H    0.9312212499    3.7767915692   -0.9010527479
 H    3.3776948813    3.5762328620    0.6912373321
 H    3.3697873043    3.7521755952   -1.0640984724
 H    2.1239072438    5.9517295553   -0.7991404401
 H    2.1966402507    5.7564594187    0.9491856177