20

 C   -0.0557533208    1.4592786873   -0.4745546391
 C   -0.0467510559    0.0166169119   -0.0172521599
 C    1.1974616201   -0.8039515965   -0.0538335386
 N    0.5899894683   -0.4385695911    1.2252757154
 C    1.2985323241    0.4989780207    2.0701682516
 C    0.4264238304    1.1555207151    3.1838519231
 C    1.4890645074    0.7109812288    4.2001295493
 O    1.7279303241    1.0064265917    5.3345412132
 C    2.1876578861   -0.1770534471    3.1597037137
 H    0.9209604652    1.9386545530   -0.3759888317
 H   -0.3395415201    1.5078186500   -1.5310744105
 H   -0.7852502405    2.0504545765    0.0899217795
 H   -0.9870378035   -0.5015492828   -0.2014082339
 H    1.1721322079   -1.8594496697   -0.3116617258
 H    2.1137088426   -0.2897329772   -0.3441236885
 H    1.8727641488    1.2549095957    1.5166791687
 H    0.2150428284    2.2257305686    3.1254360659
 H   -0.5115768627    0.6076065195    3.3244121016
 H    1.9178085383   -1.2305552279    3.2897500806
 H    3.2737401821   -0.0875614965    3.0837816155