19

 C    0.2279139574    1.5417652174   -0.3771097989
 C    0.0679421870    0.0667043584   -0.0763441892
 C    1.2588886502   -0.8638252247   -0.0474328867
 C    0.5050111400   -0.5666893597    1.2232790646
 C    1.1640135984    0.2446753077    2.3453841203
 C    0.1576161305    0.9520688868    3.1486205834
 C   -0.6831279114    1.5274309178    3.7846798238
 C    2.0081214887   -0.6143959914    3.1859527718
 C    2.6984726293   -1.3330314268    3.8560597359
 H    1.1921835387    1.9311686717   -0.0367976899
 H    0.1740013094    1.7200006510   -1.4564156512
 H   -0.5579126334    2.1346149002    0.1024343743
 H   -0.8447638456   -0.3594898618   -0.4852360224
 H    1.1766682221   -1.8540759329   -0.4813238464
 H    2.2412775245   -0.4138070771   -0.1595473896
 H   -0.1322626420   -1.3560496619    1.6087033925
 H    1.8162270863    0.9995341290    1.8856480652
 H   -1.4193023794    2.0369383390    4.3556992064
 H    3.3088443393   -1.9621404125    4.4553956363