18

 O   -0.0404965979    1.3945503561   -0.0403079126
 C   -0.0144391416   -0.0113902960    0.0205594848
 C    0.3194406097   -0.6127038424    1.4065235408
 C   -0.7717978296   -0.0205129390    2.3122636130
 C   -2.0090175252   -0.0023569993    1.3603842875
 C   -1.4359176036   -0.6056211944    0.0427080126
 C   -1.0875215827   -2.0421981914    0.3483113262
 N   -1.6725713927   -3.0853550864   -0.0484612908
 O    0.0101501540   -2.0108568168    1.1866907499
 H    0.8657611904    1.7142932380   -0.0871852103
 H    0.6105076564   -0.4480175432   -0.7691935190
 H    1.3469937531   -0.5448883342    1.7644178079
 H   -0.9155051492   -0.6457878405    3.1957329167
 H   -0.4987693930    0.9852975939    2.6387053717
 H   -2.8465043640   -0.5938090751    1.7346099021
 H   -2.3572578191    1.0157634404    1.1815326803
 H   -2.0536298538   -0.4823230092   -0.8429928823
 H   -1.2253584613   -3.9169623406    0.3430531314