16

 O   -0.1621676350    0.4018785572   -0.7844443992
 C    0.0321056208    1.2439074199    0.0668758306
 N    1.2385049085    1.5510720687    0.6126508375
 C    2.4882467083    0.9263237888    0.2028264324
 C    3.5351507096    1.9476018359   -0.1779924498
 C    4.3743187182    2.6065755570    0.8932550730
 C    4.9959258903    1.6072505912   -0.0503029828
 H   -0.7796239650    1.8642255775    0.4976759430
 H    1.2779870875    2.2898620688    1.2971668569
 H    2.8740845447    0.2871587332    1.0096031153
 H    2.2384684837    0.2754499721   -0.6386669240
 H    3.2557304642    2.5738476054   -1.0206651040
 H    4.6304348796    3.6538132595    0.7787945691
 H    4.2226215845    2.2967940617    1.9229589367
 H    5.2568177882    0.6315842258    0.3466391398
 H    5.6747679021    1.9700454372   -0.8134037544