21

 O   -0.0199158829    1.4613560273   -0.2445525730
 C    0.0187287564    0.0568617653   -0.0363850920
 C   -1.4004619517   -0.4804535222   -0.1897920764
 C   -1.4577051556   -1.9946052080   -0.0428360013
 C   -1.3896306396   -2.7045810334    1.3556955126
 C   -2.8614298427   -2.2717309797    1.6011882716
 C   -2.8197373764   -2.7531723951    0.1214461597
 C   -2.0053617430   -3.9590611789    0.6490954692
 O   -1.2689399824   -4.6729369467   -0.3110054535
 H    0.8736683080    1.8036434678   -0.1507661564
 H    0.6835544764   -0.4358793712   -0.7648235103
 H    0.4022532924   -0.1856017472    0.9683098440
 H   -2.0410892685    0.0410452365    0.5272928873
 H   -1.7622870233   -0.2020324135   -1.1877256621
 H   -0.8055091508   -2.4636869742   -0.7830808673
 H   -0.5688415338   -2.6895224331    2.0762747140
 H   -3.4429343896   -2.8842576957    2.2970652253
 H   -3.0471389453   -1.2131556163    1.7727708744
 H   -3.6479463416   -2.7874339958   -0.5883035349
 H   -2.5561987007   -4.6377741657    1.3141742386
 H   -0.6705903153   -5.2669236204    0.1523042005