17

 C    0.0165360909    1.5468338696    0.0100304284
 C   -0.0037591578    0.0454552887    0.0259398308
 C   -1.1521263584   -0.6906077274    0.0158564064
 N   -2.4534922124   -0.1899613178    0.0814453568
 N   -1.1024343855   -2.0660998464   -0.0199774755
 N    0.0321550066   -2.7916396051   -0.0133611500
 C    1.1385534379   -2.1247034103    0.0048525508
 C    1.2667050646   -0.6648383744    0.0486008979
 N    2.3911122027   -0.0260146075    0.0880436689
 H    0.9055713580    1.8820738713   -0.5296872758
 H   -0.8686010341    1.9781489655   -0.4709055174
 H    0.0903920672    1.9671957123    1.0207486129
 H   -2.4900392669    0.8183973805    0.0484020074
 H   -3.0813067602   -0.5884946549   -0.6068021747
 H   -1.9402869949   -2.6009384064    0.1404096808
 H    2.0439742063   -2.7272716151   -0.0009460130
 H    3.1711855759   -0.6857948326    0.0704921552