23

 C    0.0636943804    1.5116823739   -0.3076617319
 C   -0.0124064610    0.0321939321    0.0223276174
 C   -1.2994910487   -0.6253199331   -0.4430490330
 C    1.2547901684   -0.7921919946   -0.0418851457
 C    0.6059752188   -0.5044285974    1.2965914125
 C    1.2930013103    0.3561549216    2.3399751761
 C    2.2148941293   -0.4639632220    3.2133203894
 C    2.3928143126   -0.1947773275    4.6446180598
 O    1.5863279792   -1.2879666344    4.2018254770
 H    1.0129694042    1.9610518630   -0.0052699162
 H   -0.0412670519    1.6681776133   -1.3878035144
 H   -0.7424087738    2.0700281044    0.1836578838
 H   -1.4176064825   -0.5350482406   -1.5297037729
 H   -1.3180385803   -1.6906531274   -0.1932580721
 H   -2.1743238534   -0.1576216382    0.0245204011
 H    1.2035251938   -1.7996591559   -0.4419213829
 H    2.1811317796   -0.2733546124   -0.2722463572
 H    0.0715800629   -1.3406798373    1.7415466769
 H    1.8798453928    1.1515393476    1.8658272610
 H    0.5483668856    0.8437395001    2.9814001820
 H    3.0305288968   -0.9628321748    2.6862962908
 H    3.3233198392   -0.4688947085    5.1403474031
 H    1.8494731277    0.6294217380    5.1061404556