15

 O   -0.1336114725    1.2818964709    0.0108922129
 C   -0.0546142716   -0.0966412009    0.1013331236
 C   -0.5855735952   -0.7388470769    1.3462438370
 C   -1.4865175185   -0.7732426820    0.1386647638
 O   -2.5326008670    0.1178754952    0.0109916079
 C   -1.7110254110   -2.0690908365   -0.5553873549
 O   -1.0005122491   -3.0399481910   -0.4330038394
 C    1.0278754704   -0.6741370636   -0.7264999661
 O    1.6888705525    0.0517236881   -1.4405266574
 H    0.4780532677    1.5113670346   -0.7128166410
 H   -0.1495595590   -1.6898965683    1.6352296571
 H   -0.8662082032   -0.0621227868    2.1451736540
 H   -2.1403582376    0.9928114855   -0.1425269575
 H   -2.6122149800   -2.0650738495   -1.2024360713
 H    1.1799773739   -1.7630594987   -0.6715513486