13

 N    0.0653453054   -1.1591182866   -0.0164482633
 C    0.0429311609   -0.0043587485   -0.0010648619
 C   -0.0275797695    1.4416394798    0.0312054422
 C   -0.3334241092    2.2674765015    1.3268554274
 C    0.4312638064    3.2822205325    0.4261070545
 O    1.2506298632    2.1527797554   -0.0426492738
 C   -0.5492459613    3.4604288707   -0.7489086723
 C   -0.8731244977    2.1977731525   -1.0241320317
 H   -1.3765456855    2.4602078854    1.5790764917
 H    0.2542426754    1.9276790824    2.1813488418
 H    1.0028314411    4.1243539680    0.8080738106
 H   -0.8718513785    4.3863771780   -1.2000583349
 H   -1.5265069106    1.7536293788   -1.7585878003