21

 C   -0.6994851530    1.8533218662   -0.2731374057
 C   -0.4843446542    0.3344502340   -0.3139543845
 C   -1.7611761784   -0.4380982123   -0.1212585823
 C   -3.0881808447   -0.3966278227   -0.9738016647
 C   -3.4192731834   -1.4427149412    0.1433879424
 C   -1.9621051230   -2.0089346743   -0.0483723885
 C   -1.6189073735   -2.8884724129   -1.2438357317
 C   -2.7345176192   -0.4300251091    1.0697789708
 O   -2.8735796128    0.0938468397    2.1336915459
 H    0.2484750037    2.3862168802   -0.3908631605
 H   -1.3682595913    2.1798245097   -1.0764043849
 H   -1.1448126892    2.1556043973    0.6793263444
 H   -0.0177163216    0.0458406874   -1.2648078911
 H    0.2202654107    0.0418318990    0.4751515965
 H   -3.6583888593    0.5342793115   -0.9653051431
 H   -3.0086931955   -0.7954744868   -1.9841642805
 H   -4.3414229065   -2.0027670141    0.2820140812
 H   -1.5436312084   -2.4574923920    0.8591725552
 H   -2.0127905196   -2.5217020961   -2.1938997621
 H   -0.5317654913   -2.9741296030   -1.3473398174
 H   -2.0129896594   -3.8986653407   -1.0911457693