17

 C    0.4444737774   -0.6675210703   -1.5433892751
 C    1.0910368595    0.6939634747   -1.1648231622
 C    1.2086232070    0.8356320309    0.3635814197
 C    0.1034263158    1.5631984398   -0.3654662332
 C   -1.0873779161    0.6781286647   -0.0747885280
 C   -1.0446483590   -0.1189813687    1.2614687451
 O   -1.3958974749   -1.3924320469    0.5230808287
 C   -0.3989094147   -0.6925618805   -0.2898483435
 C    0.4635250374   -0.3428521786    0.9482709523
 H    1.1823382107   -1.4718034751   -1.6101895003
 H   -0.1270137134   -0.6098401460   -2.4739007915
 H    1.8235993345    1.1527044997   -1.8175370669
 H    2.0416256789    1.3440926335    0.8303082958
 H    0.0735480979    2.6397045796   -0.4679405514
 H   -2.0514830030    0.8437725279   -0.5516685408
 H   -1.5750166299    0.0203529410    2.2045304461
 H    0.9847972418   -1.1550479257    1.4512263653