23

 C   -0.0409355558    1.5696655935   -0.0196555445
 C    0.0514528717    0.0344569890    0.0221917236
 C    0.6941929514   -0.4972553705   -1.2692842515
 C    0.9963491913   -1.9922602183   -1.1795410343
 C    1.9807302787   -2.2775146481   -0.0385300214
 O    3.3376981265   -1.9995387085   -0.4177238677
 C    1.6098562983   -1.5266253270    1.2116011016
 C    0.7643954789   -0.4892136280    1.2627144684
 C    0.4396719177    0.1737334848    2.5777080093
 H    0.9562633674    2.0243788275   -0.0048570721
 H   -0.5383759406    1.8903544748   -0.9406650667
 H   -0.6087332344    1.9758730142    0.8212494480
 H   -0.9821589665   -0.3483909077    0.0673488242
 H    0.0399208367   -0.2797584590   -2.1206642144
 H    1.6293893448    0.0500605860   -1.4552992772
 H    0.0666399180   -2.5468557062   -0.9952573726
 H    1.4237100506   -2.3683141303   -2.1140415298
 H    1.9805607335   -3.3539440020    0.1714776707
 H    3.4764552774   -1.0547520718   -0.2964409435
 H    2.0983560159   -1.8592368968    2.1255681969
 H    0.9150486934   -0.3489257701    3.4114548429
 H    0.7682322184    1.2190637723    2.6015284666
 H   -0.6433503233    0.1845066421    2.7569413435