18

 C   -0.0650309272    1.3556109836   -0.2391754063
 N    0.0452674835   -0.0588245234    0.0395812888
 C    0.8426169630   -0.8950609300   -0.8852276379
 C    1.4367555822   -1.5910944012    0.3418797664
 C    0.8462768951   -0.4812087493    1.2113313242
 O    1.2929723247   -2.9604954286    0.6141051806
 C    2.6328093963   -2.4306490088    0.5373237902
 C    3.4181347256   -2.8743219424   -0.6511845992
 O    4.6215289215   -2.8864587749   -0.6928818710
 H    0.9158000174    1.8594384251   -0.3404513030
 H   -0.6223307186    1.5072050848   -1.1690741502
 H   -0.6187353813    1.8490622623    0.5659262645
 H    0.2550566298   -1.5193919850   -1.5664356522
 H    1.5933288431   -0.3313344887   -1.4624318368
 H    1.6011687447    0.2566996484    1.5275268358
 H    0.2630189064   -0.8007687833    2.0811279311
 H    3.1798954327   -2.3717221332    1.4768844946
 H    2.7842878609   -3.1927640755   -1.5086015096