20

 C    0.0747894183    1.4598208553    0.2851240002
 C   -0.0653943681   -0.0119059996   -0.1441461055
 C   -1.4829976525   -0.4969976556   -0.1534505129
 C   -2.2247425145   -0.9174496210   -1.1834669692
 C   -3.5354825041   -1.4353868332   -0.6540534261
 C   -3.2751072060   -2.7676381943    0.1266221460
 C   -3.0861809487   -1.8865248683    1.3479603372
 C   -2.3308714036   -0.6087718237    1.0747712053
 N   -3.7538951029   -0.7081502468    0.6862101915
 H    1.1253177915    1.7659119613    0.2790441114
 H   -0.4772563268    2.1167894792   -0.3935856348
 H   -0.3134369622    1.6235556160    1.2952968354
 H    0.3659618931   -0.1442482311   -1.1423652889
 H    0.5284859009   -0.6378128610    0.5362946147
 H   -1.8989109720   -1.0327991252   -2.2102906377
 H   -4.3948798093   -1.4015454549   -1.3222270542
 H   -4.1932575133   -3.3510004625    0.2268955243
 H   -2.4590263096   -3.4148747196   -0.2085604625
 H   -3.3214942544   -2.1770520959    2.3680465002
 H   -2.1363868256    0.0227398607    1.9370994856