22

 C   -0.3772643597    1.3678349095    0.5593691938
 C   -0.4602407694   -0.1600487379    0.5566207861
 C   -1.1899157961   -0.7060134681   -0.6839779401
 C   -1.2837142914   -2.2079781854   -0.6949243958
 N   -0.6681201002   -2.9217891037   -1.5417415866
 O   -2.0932821116   -2.6333863051    0.3283741641
 C   -2.2171950800   -4.0172770249    0.5253820433
 C   -3.4839183808   -4.4641420443    1.1778279287
 C   -3.2330245422   -4.7822684007   -0.2814356010
 H    0.1457143688    1.7341199066    1.4482031247
 H    0.1605636277    1.7384010217   -0.3202398197
 H   -1.3757999794    1.8191387144    0.5504693701
 H    0.5496504231   -0.5866636399    0.5905211151
 H   -0.9776255478   -0.5090031131    1.4565709635
 H   -2.2057187143   -0.2919940464   -0.7145555366
 H   -0.6729752030   -0.4032715461   -1.5973028407
 H   -0.8495197006   -3.9163326812   -1.4077133887
 H   -1.2833381295   -4.5049695864    0.7950555323
 H   -3.4301314631   -5.2644908836    1.9066060911
 H   -4.2106939680   -3.6914860426    1.4000777462
 H   -3.7968920895   -4.2189405115   -1.0158148177
 H   -3.0061446731   -5.8038504113   -0.5658660021