20

 C   -0.3730038587    1.3159299692   -0.0325098141
 N    0.0299666228   -0.0839662845   -0.0426977196
 C    0.8389353112   -0.4366949962   -1.2063409044
 C    0.4775282736   -1.8130784464   -1.7612407143
 C    0.5962969895   -2.9745729134   -0.8255815270
 C    0.7811510519   -3.0108376318    0.5003731261
 C    0.9296217069   -1.9273162887    1.4969379424
 O    1.2780086866   -2.2176737433    2.6273360279
 C    0.6623624808   -0.4469628085    1.2116375898
 H    0.4760328644    2.0199155800    0.0576474935
 H   -0.9148439614    1.5528428701   -0.9527755377
 H   -1.0474068378    1.4983008845    0.8100496994
 H    0.6668398961    0.3018197525   -1.9953919669
 H    1.9184844360   -0.3965353069   -0.9732618104
 H   -0.5578062971   -1.7864191750   -2.1321179673
 H    1.0979877517   -2.0195036653   -2.6450160375
 H    0.5189768089   -3.9417225963   -1.3220295791
 H    0.8725021406   -3.9823369611    0.9798248266
 H    1.6374091605    0.0638610052    1.3534042354
 H    0.0288558635   -0.1107978843    2.0386256370