21

 C    0.0541289347    1.5204963796   -0.0581646109
 C   -0.0644627542    0.0060354441   -0.0553530150
 O    0.6935196962   -0.4999529400   -1.1428931463
 C    0.7473711395   -1.9075690863   -1.2335293327
 C   -0.4819118253   -2.4951757170   -1.9481188006
 O   -0.2873253317   -3.8802971949   -2.1982504580
 C    0.8742362183   -4.0978784653   -2.9550828427
 O    2.0364577528   -3.6612845814   -2.3028943524
 C    1.9922670691   -2.2642773652   -2.0516995414
 H    1.1006473221    1.8225671927    0.0395980470
 H   -0.3358489932    1.9344572214   -0.9923171973
 H   -0.5121237506    1.9481674456    0.7745273037
 H    0.3157749322   -0.4116402031    0.8909854891
 H   -1.1206678688   -0.2929245129   -0.1398804727
 H    0.8343594708   -2.3654091659   -0.2365552285
 H   -1.3904851677   -2.4091056971   -1.3472816890
 H   -0.6341473750   -1.9440698854   -2.8913383031
 H    0.9694416697   -5.1765561617   -3.0923042000
 H    0.7813375147   -3.5897837163   -3.9349775415
 H    1.9699062618   -1.6962432862   -2.9965326709
 H    2.9053341548   -2.0013839147   -1.5132436068