19

 C    0.0617762659    1.5181456676    0.2077763447
 C   -0.0319952721    0.0068645752   -0.0683467345
 C   -1.4369873910   -0.5157973005   -0.0681293988
 C   -2.0933586255   -1.0490843995   -1.1064149930
 C   -3.5143455167   -1.4173740132   -0.7757095599
 O   -3.9267465095   -2.6827697579   -1.2376365913
 C   -3.4856752035   -1.3514508076    0.7609610838
 O   -4.2240788218   -1.9928316453    1.4633024914
 C   -2.2998938431   -0.4874091340    1.1814090632
 H    1.1046609836    1.8480222701    0.1961634108
 H   -0.4835205978    2.0888588475   -0.5504065680
 H   -0.3563545614    1.7745437829    1.1863859383
 H    0.4350962665   -0.2207916500   -1.0328142784
 H    0.5490691437   -0.5276771405    0.6965447072
 H   -1.6825128143   -1.1797873348   -2.1010433874
 H   -4.2093165100   -0.6358384985   -1.1409377729
 H   -4.4827931015   -3.0497705444   -0.5356514049
 H   -1.8130997214   -0.8874045764    2.0783220511
 H   -2.6471344301    0.5235550495    1.4372267385