16

 N    0.0293329865    1.1791479162    0.2331285145
 C   -0.0023636500   -0.0572694234    0.0419376373
 O    1.0158194495   -0.9513483115   -0.2554336785
 C    0.0788325420   -2.0609422512   -0.3425863123
 C    0.0195374670   -2.9443127541    0.9195783199
 C   -1.4972247837   -3.2604112722    1.0070084599
 C   -1.4716974694   -1.7485778330    1.3569353333
 O   -0.1690764175   -1.9620217340    1.9773676047
 C   -1.0969533828   -1.1065178161    0.0005917861
 H    0.9824703259    1.5417674438    0.1755555461
 H    0.1440775524   -2.5788403694   -1.2990770912
 H    0.8119973500   -3.6660010283    1.1105107188
 H   -2.0314463038   -3.5941682640    0.1127513094
 H   -1.7337115104   -3.8808528279    1.8712798529
 H   -2.1970176336   -1.2520581085    1.9983069415
 H   -1.9202831022   -0.9512171365   -0.6940744525