19

 C   -0.0124519734    1.3953186113    0.6398747754
 O   -0.1967738293    0.0133354912    0.8458491069
 C    0.9041097837   -0.7560689226    0.4342471900
 C    0.6242818100   -2.2292807280    0.7384230169
 C   -0.6809168725   -2.7262451821    0.1413159965
 O    1.7789982376   -3.0209371976    0.3256589612
 C    2.1170762758   -3.4306002429    1.6656239732
 C    0.9076669756   -2.6512653281    2.1956626095
 O    0.3973604338   -2.4724250826    3.2575748044
 H    0.1364272330    1.6312934529   -0.4253706195
 H   -0.9146470069    1.8994232607    0.9930563240
 H    0.8534542677    1.7775397704    1.2020698152
 H    1.0837554055   -0.6598647319   -0.6509118769
 H    1.8269220922   -0.4367777046    0.9464111257
 H   -0.6557722316   -2.6166908274   -0.9477684039
 H   -0.8433636882   -3.7807523567    0.3790479860
 H   -1.5114297749   -2.1356265055    0.5335160541
 H    2.0730707534   -4.5178102476    1.8071473076
 H    3.0970715186   -3.0631293592    1.9956589337