14

 O    0.2902187846    1.2981445523   -0.4115883541
 C    0.0136907352   -0.0071109882    0.0203741604
 C    0.1086478047   -0.2818782378    1.5604194543
 N   -1.3140876919   -0.6223566770    1.5266314252
 C   -1.5105994932   -0.2716735041    0.1209643504
 C   -2.2068395221   -1.0120650572    2.4608975850
 O   -3.3889904321   -1.1926699061    2.2497059266
 H    1.2432801117    1.4002852299   -0.4981307459
 H    0.5464328567   -0.7566796072   -0.5760187864
 H    0.7692477379   -1.0984710595    1.8714523134
 H    0.3402089936    0.6234181074    2.1339053472
 H   -2.1066009269    0.6347061562   -0.0276276338
 H   -1.9148533385   -1.0801113127   -0.4942355003
 H   -1.7297157398   -1.1602463059    3.4522471581