14

 N   -0.2161125330    1.1155580160   -0.6908492940
 C   -0.0915449084    0.0022520891   -0.1387361623
 O    1.0383182474   -0.6468264137    0.3659292727
 C    0.2691752486   -1.8284172577    0.7066105842
 C   -0.3474259186   -1.7389676434    2.1246469984
 O   -1.5128596425   -1.0388306700    1.5857442349
 C   -1.0233363682   -1.1418412746    0.2320146853
 C   -0.6938223325   -3.0024756602    2.7456929714
 C   -0.9617015096   -4.0645745480    3.2395738982
 H    0.6717076006    1.6182995166   -0.7436009180
 H    0.7207218348   -2.7511942715    0.3525106801
 H    0.2247329729   -1.0989585578    2.8053738758
 H   -1.7670561917   -1.4963073064   -0.4798037811
 H   -1.2038461097   -4.9961709785    3.6893800444