14

 C   -0.7667150618    1.2476155309   -0.3888698300
 C   -0.0964276917   -0.0750932055   -0.0686283352
 O    1.0834559853   -0.3482568230   -0.8738448429
 C    1.9675916939   -0.4836078036    0.2482564921
 C    3.1179565591    0.5048872564    0.2348584429
 O    4.0427688830    0.4569063935    0.9995111202
 C    0.7776276854   -0.1457599296    1.1921534008
 O    0.6251381975    0.0077303057    2.3598617781
 H   -0.0637010436    2.0800180478   -0.2947519893
 H   -1.1524325187    1.2329178208   -1.4120439209
 H   -1.6028623573    1.4144028115    0.2966519967
 H   -0.8117595996   -0.9069177125   -0.1279245407
 H    2.3503076909   -1.5021819168    0.3919729157
 H    3.0068562077    1.2932676545   -0.5419445576