15

 O    0.0351654425   -0.0170423094    0.1155180316
 C   -0.0231144393    1.1870167310    0.0180290273
 C   -1.2279214733    2.0439337345   -0.0202808710
 C   -0.8887857978    3.3388348503    0.0093732377
 C    0.6082774048    3.5643308714    0.0560906438
 N    1.0132750871    4.1149419176    1.3704565048
 C    1.7137407815    3.1999015285    1.9260856941
 N    2.0138872156    2.0703859161    1.1879007392
 C    1.2022921798    2.1306843492   -0.0287339443
 H   -2.2290194747    1.6322232170   -0.0281148007
 H   -1.5795722705    4.1737511673    0.0424602152
 H    0.9387292039    4.2364837673   -0.7428739682
 H    2.1227645234    3.2920874161    2.9286039129
 H    2.1370797019    1.1771515374    1.6440884144
 H    1.8003097751    1.9255132858   -0.9211853967