18

 C   -0.6709172069    1.2721297723    0.1685272284
 C    0.3326242105    0.1759385567   -0.0911242558
 O    1.2154983030   -0.1041663933    0.6827586382
 C    0.2176697404   -0.6615266925   -1.3978964809
 C    1.5704661104   -0.6588317360   -2.1437054815
 C   -0.1464348939   -2.1240752275   -0.9646814932
 O   -0.2586431223   -3.0005056384   -2.0568695738
 C   -0.8489308908   -0.1883558212   -2.2843346973
 N   -1.7064446425    0.1308123142   -2.9922035990
 H   -0.6158028754    2.0297756776   -0.6209456685
 H   -1.6911287234    0.8740722579    0.1380774201
 H   -0.4723194089    1.7264771186    1.1392593663
 H    2.3571260490   -0.9118153360   -1.4303802270
 H    1.5474402926   -1.4031775516   -2.9411947576
 H    1.7852045804    0.3215877097   -2.5757635702
 H    0.6731524469   -2.4853259267   -0.3398574802
 H   -1.0623756988   -2.1064748732   -0.3567458781
 H   -1.0521607403   -2.7697997905   -2.5539730699