21

 C   -0.1219591078    1.5491924773   -0.0400595910
 C    0.0377417602    0.0332365756   -0.0250144928
 C    1.0802813122   -0.5937729533   -0.9827504105
 C    2.3871640405   -0.0633512719   -0.3629475551
 O    2.1028860436   -0.0502359296    1.0486732275
 C    0.7807084669   -0.5739175871    1.1849091760
 C    0.2925056852   -0.3634176352    2.5936476390
 O    0.7986946054   -1.9685455006    0.8819024080
 C    0.9643567064   -2.0627066059   -0.5471052746
 H    0.8129031206    2.0603477294    0.2019876043
 H   -0.4600772644    1.8979709194   -1.0214870873
 H   -0.8703532719    1.8646192059    0.6942225487
 H   -0.9367511334   -0.4511324211   -0.1450283173
 H    0.9638577828   -0.4133937105   -2.0517276417
 H    3.2425909482   -0.7192222948   -0.5648302198
 H    2.6412077187    0.9498671040   -0.6970345992
 H    0.2788682409    0.7017663484    2.8347160268
 H   -0.7130573230   -0.7743817946    2.7081922052
 H    0.9607907624   -0.8715435186    3.2928728511
 H    0.0935348280   -2.5650014210   -0.9890431810
 H    1.8611609987   -2.6508894661   -0.7754161765