21

 C    0.4044785527    1.2195809337    0.0279791576
 C   -0.0901513744   -0.2460818123   -0.0025692160
 C    0.5026903223   -1.0387046888   -1.2267795583
 C    1.6064913720   -1.9343217113   -0.6894174859
 C    2.7195588863   -1.3184471263    0.1222014983
 C    1.5364327840   -1.9421577344    0.8208735890
 C    0.3871998759   -1.0516183749    1.2629928051
 C   -1.5519170911   -0.2204904157   -0.0702418857
 C   -2.7531754496   -0.1893620195   -0.1257987765
 H    1.4943060328    1.2761200561    0.0788263657
 H    0.0774007068    1.7513859041   -0.8701805886
 H   -0.0045944688    1.7422151437    0.8974618497
 H   -0.2790593586   -1.6600357916   -1.6724416182
 H    0.8443683955   -0.3470846470   -2.0046513955
 H    1.8265374288   -2.8410702852   -1.2424279328
 H    3.6550622415   -1.8665573664    0.1627540586
 H    2.8481460793   -0.2422014961    0.1337519260
 H    1.7047738040   -2.8546892309    1.3824615599
 H    0.6550723732   -0.3682502385    2.0762696482
 H   -0.4321516541   -1.6771510035    1.6279195939
 H   -3.8135262587   -0.1678209751   -0.1748758444