16

 O    0.0977598562    1.3322550559    0.2119921183
 C    0.0549213958   -0.0264052477   -0.1866866748
 C   -1.3626442591   -0.5821081447   -0.0855088197
 C   -1.5682093951   -2.1016024186   -0.0454903460
 O   -0.9183906658   -2.5898513239    1.1442177851
 C   -2.2438648312   -2.0462853230    1.2620200182
 C   -2.0402176455   -0.5268222858    1.3492382178
 O   -1.2476644049   -0.0720616162    2.4235959942
 H   -0.1874365154    1.3423955013    1.1351266207
 H    0.4069819766   -0.0626435580   -1.2233562693
 H    0.7395507104   -0.6477502408    0.4094635116
 H   -2.0152366818   -0.1035877414   -0.8215876101
 H   -1.6912987331   -2.8095560523   -0.8562580108
 H   -3.0012329100   -2.6812352262    1.7066696980
 H   -2.9643391171    0.0535121855    1.3578231142
 H   -0.5650768800   -0.7447653340    2.5514279327