19

 C   -0.1958742950    0.5926034414    0.8292496144
 O    0.2159876716    0.9884101746   -0.4697061295
 C    0.7496691997   -0.0055113406   -1.2108647087
 C    0.9975386741   -1.3371273348   -1.0114470965
 N    1.5740732168   -1.8693280143   -2.1505230041
 C    1.6702237934   -0.8851615139   -3.0109603165
 C    2.2328151585   -0.9796354222   -4.3880185608
 N    1.1764390494    0.2928901363   -2.4866763974
 C    1.1083931675    1.5918208715   -3.1249474337
 H   -0.9678744239   -0.1850795442    0.7747930209
 H    0.6536334341    0.2119376650    1.4099086485
 H   -0.6026254542    1.4821847611    1.3116279987
 H    0.8023084123   -1.9372353677   -0.1380266107
 H    1.4966762565   -0.7152890491   -5.1575490952
 H    3.1002343682   -0.3227014416   -4.5293608598
 H    2.5506776502   -2.0095121371   -4.5557939354
 H    0.6619343371    2.2984404641   -2.4253560670
 H    2.1069537080    1.9484071850   -3.3972956414
 H    0.4921298356    1.5534871163   -4.0289449558