14

 C   -0.0999421046    1.3727730879    0.0189957067
 O   -0.0536995852   -0.0559069456   -0.0155159893
 C   -1.2132712873   -0.6981873055   -0.0167728706
 N   -1.3515546350   -1.9849099696   -0.0509411997
 C   -2.7314134790   -2.1636676537   -0.0318276119
 N   -3.2472821933   -3.4490593576   -0.1247665591
 C   -3.3536972772   -0.9585849958    0.0178656898
 O   -2.3475552027    0.0153078157    0.0253987668
 H    0.9401983497    1.6975998748    0.0127047309
 H   -0.6222181135    1.7692384319   -0.8566787584
 H   -0.5984259117    1.7272737337    0.9259834781
 H   -2.5871687119   -4.1386835693    0.2083018822
 H   -4.1518704098   -3.5666850123    0.3089093000
 H   -4.3663350785   -0.6021542547    0.0371960145