19

 C    0.0081785668    1.5496805065    0.1260765931
 C    1.5455663290    1.5476612403   -0.1075422043
 C    1.4267989915    0.0843702261   -0.6297703151
 C    2.4124265576   -0.9639073241   -0.1756281234
 O    2.8491466330   -0.8991141381    1.1904218510
 C    1.9678487761   -1.9547865789    0.8163281956
 C    0.5569096813   -1.8612775805    1.3637033837
 O    0.0441008284   -0.5471450272    1.3224312687
 C    0.0122169984    0.0103301776    0.0214306518
 H   -0.3594517252    1.9459368234    1.0742727658
 H   -0.5444274676    2.0111236150   -0.6965623975
 H    1.9536217473    2.2907102535   -0.7955133116
 H    2.1018306312    1.5768449127    0.8305714917
 H    1.3460884601    0.0546066932   -1.7209362740
 H    3.2053218671   -1.2351037981   -0.8726634136
 H    2.4053579871   -2.9541680279    0.8214866491
 H   -0.0852148271   -2.5649111703    0.8040259003
 H    0.5401306126   -2.1591262258    2.4173341180
 H   -0.7789612476   -0.4700553174   -0.5737100792