18

 C    0.3142393062    1.4311173651    0.1982808492
 C   -0.0212766904   -0.0290639204   -0.1279822747
 N    0.6911931546   -0.4976503587   -1.3068253481
 C    1.7916455712   -1.0977502512   -1.1630730351
 N    2.5985691765   -1.6154461500   -2.1566783394
 C    3.6653121257   -2.3255276032   -1.5557253683
 C    3.5518300521   -2.1375307585   -0.2345350093
 N    4.2442986967   -2.5802426777    0.8817726421
 O    2.4380502075   -1.3730605592    0.0435115997
 H    1.3697671207    1.5348828340    0.4696844715
 H    0.1235761819    2.0709726544   -0.6684572816
 H   -0.2917907530    1.7918630209    1.0365234565
 H    0.1800200630   -0.6543446019    0.7538762016
 H   -1.0946352938   -0.1080377935   -0.3378820630
 H    2.1823260955   -1.8636474622   -3.0383196120
 H    4.4320627640   -2.8108701084   -2.1323657989
 H    5.1203240107   -3.0235858887    0.6389990249
 H    4.4028986511   -1.8404007205    1.5573214445