20

 O   -1.3490230779    1.6187506280    1.2967544389
 C   -1.3618227441    0.2168263680    1.4369783305
 C   -1.4684950983   -0.4633616231    0.0670607433
 O   -0.4449806008    0.0672313823   -0.7896825089
 C   -1.3839461286   -1.9682129329    0.1812280862
 C   -2.5008548321   -2.9237566861    0.0079694991
 C   -3.5134893345   -2.4760260777   -1.0438145089
 C   -2.3091221511   -2.3449812692   -2.0098748367
 N   -1.3434549631   -2.8872709257   -0.9804317438
 H   -0.7474813346    1.7929246828    0.5606501554
 H   -0.4526397081   -0.1476554541    1.9491818088
 H   -2.2216665317   -0.0482285315    2.0622047522
 H   -2.4069891043   -0.1416925049   -0.3926488639
 H    0.3485534705   -0.4673095135   -0.6722682738
 H   -0.6427372392   -2.2924152757    0.9133164273
 H   -2.6404181826   -3.7567227603    0.6907571132
 H   -4.1933463564   -3.2794167322   -1.3323919021
 H   -4.1067781312   -1.5847025691   -0.8195469445
 H   -2.3514703236   -3.0333472723   -2.8553626631
 H   -2.0466569784   -1.3487562528   -2.3726853690