17

 O   -0.0484764235    1.3591584059    0.0130545765
 C    0.0243215053   -0.0400102431    0.0012786785
 C    0.6360113440   -0.6958751890    1.2574934155
 O    0.1677673768   -2.0534507820    1.1957364577
 C   -0.7544673095   -2.1300215975    0.0829712588
 C   -1.3584582136   -0.7279995436    0.0117685189
 C    0.1614775671   -2.1404795476   -1.1559927685
 O    0.4261198348   -3.0579466769   -1.8819358662
 C    0.6951632491   -0.6929624364   -1.2303250689
 H    0.8437116282    1.7140666082   -0.0631554693
 H    1.7330110352   -0.6879728119    1.2576689813
 H    0.2753395638   -0.2068256582    2.1708619180
 H   -1.3962760914   -2.9992914434    0.2077193936
 H   -1.9549951428   -0.4685409920    0.8888200662
 H   -1.9324056508   -0.5421034544   -0.9000382411
 H    0.3485815213   -0.2198462429   -2.1555826256
 H    1.7892951460   -0.6686985152   -1.2209937656