13

 N   -0.1548351358    1.2851004049    0.1086018712
 C   -0.0336155218    0.0470699411   -0.0508826874
 O   -1.1630986225   -0.7281339734    0.1040941002
 C   -1.0173369405   -2.0625187032    0.0763131922
 N    0.0807402831   -2.7397324630    0.1404028981
 N   -0.3609436226   -4.0553440945    0.0602074871
 C   -1.7279999132   -4.1922186492   -0.0146168048
 O   -2.4158007896   -5.1837858668   -0.0688567352
 N   -2.1335507597   -2.8403995119   -0.0189203330
 H    0.7375902815    1.7476839650   -0.0548730284
 H    0.8488691488   -0.5383638438   -0.3118246525
 H    0.2975650200   -4.8086776456    0.1455080302
 H   -3.0883827878   -2.5296960796   -0.0715363677