18

 C    0.0120976579    1.4086609261    0.0121142304
 N    0.2853347120   -0.0192465694   -0.0692156792
 C    0.5870651885   -0.6503990894    0.9650881116
 O    0.7378106698   -0.2310931596    2.2862689393
 C    1.0112797426   -1.5891731646    2.7519147244
 C    0.9261338941   -2.0745896236    1.3046629928
 O    0.2489214946   -3.2198611226    0.8514815623
 C    1.6509746376   -3.0984461432    0.5431666146
 C    2.0193147968   -2.9096548033   -0.9035535705
 H    0.7500843062    1.9486733602   -0.5914306874
 H   -0.9696678087    1.6074510159   -0.4303185147
 H    0.0304892683    1.8096184134    1.0318273250
 H    1.9842824553   -1.6497538757    3.2456213828
 H    0.2164161758   -1.9544136925    3.4072786068
 H    2.2758368236   -3.7848896652    1.1176581173
 H    1.3892199460   -2.1438769010   -1.3605511464
 H    3.0667005512   -2.6007345111   -0.9871790988
 H    1.9004230084   -3.8501450643   -1.4511068703