21

 C   -0.1902310271    1.5351273770    0.0019454151
 C    0.0624223556    0.0289230377    0.0307927114
 C    1.0107453385   -0.5339234304   -1.0822641047
 C    2.0361225161   -1.2402146067   -0.1746576874
 C    3.0849403597   -2.1397359475   -0.7577261828
 O    1.1540211838   -1.8806231460    0.8332651179
 C    0.8672822940   -0.4971969954    1.2346763389
 C    2.3459738672   -0.1703956726    0.9176179959
 O    3.2638535893   -0.5828275728    1.8925864679
 H    0.7425376206    2.1084127911    0.0195848995
 H   -0.7343709900    1.8211535793   -0.9039422062
 H   -0.7912697913    1.8518661551    0.8614837520
 H   -0.8960864454   -0.4982322225    0.0066831747
 H    0.5128166019   -1.2395018121   -1.7515934309
 H    1.4690918176    0.2540463448   -1.6890789861
 H    3.6420819520   -1.6141949720   -1.5401337653
 H    3.7943029982   -2.4573620837    0.0115183932
 H    2.6257192065   -3.0280935874   -1.2028335680
 H    0.4513286882   -0.4040998923    2.2390320429
 H    2.6285236022    0.8381733655    0.6078088398
 H    2.9689296124   -1.4585992590    2.1766234423