21

 C   -0.0047702349    1.4487962245    0.0454555595
 C    0.0009042738   -0.0704850597    0.0429771916
 C    1.1060256223   -0.6594615371   -0.8300662441
 C    1.0227525617   -2.1805835245   -1.0502918567
 O   -0.3061590588   -2.6718015344   -1.1359116454
 C   -1.1268691470   -2.2385426656   -0.0706948542
 C   -0.4966488930   -2.2035539501    1.3684443534
 C   -0.5498047033   -0.6785133760    1.3219219937
 C   -1.3527474292   -0.7175978950    0.0121835901
 H    0.9213272361    1.8459039122    0.4776221211
 H   -0.0910085823    1.8427742601   -0.9735932560
 H   -0.8427752628    1.8443053582    0.6281692128
 H    1.0335539295   -0.1577473653   -1.8039594996
 H    2.0966612750   -0.4116174080   -0.4272595141
 H    1.4997112979   -2.4488829823   -1.9971731228
 H    1.5674202048   -2.7095468391   -0.2560749752
 H   -2.0386012674   -2.8336222061   -0.1360671674
 H   -1.2093474956   -2.6035413311    2.0947301525
 H    0.4668774859   -2.6922830443    1.5317785583
 H   -0.7213154485   -0.0441237015    2.1842127575
 H   -2.2559795044   -0.1893115547   -0.2701940551