20

 C   -0.0452480706    1.6287446677   -0.0055801768
 C   -0.0219081032    0.1167535406   -0.0325612203
 C    1.2717317199   -0.6309532026   -0.2631595717
 C    0.6010636647   -0.6899947244    1.0841435150
 N    1.2297951262    0.0273543053    2.1602757043
 C    0.6223876347   -0.0597216948    3.4750851882
 C    1.9331816414   -0.7427937443    3.2059793177
 C    2.0013360589   -2.1779985744    3.1723219622
 C    2.0979334977   -3.3767765103    3.1412429810
 H    0.8392093195    2.0220218594    0.5002554881
 H   -0.0718179475    2.0355430277   -1.0224377318
 H   -0.9276502110    2.0034043160    0.5256140157
 H   -0.9070280943   -0.3388255871   -0.4697204648
 H    1.2724071554   -1.5222841067   -0.8803995647
 H    2.1776605960   -0.0368451320   -0.3203547320
 H    0.1094503090   -1.6259239282    1.3514592981
 H    0.6042603060    0.8562973106    4.0597686535
 H   -0.2438329316   -0.7070104473    3.5990001170
 H    2.8421174340   -0.2576536849    3.5546747644
 H    2.1782973947   -4.4353495604    3.1181946870