13

 O   -0.0535945532    1.4318387511    0.0069091927
 C    0.0033635373    0.0179129480    0.0020031631
 C   -1.4006686380   -0.4873359590    0.0124326322
 C   -2.5626047225    0.2193449545    0.0241073098
 O   -3.5980310142   -0.6646974594    0.0303778561
 C   -2.9971285786   -1.8793689060    0.0223820015
 N   -1.6976859496   -1.8361171078    0.0109050122
 C   -3.8274651378   -3.0296870438    0.0261178108
 N   -4.5060509610   -3.9664553117    0.0291606976
 H    0.8452075000    1.7720939898    0.0018678836
 H    0.5204619870   -0.3733973380   -0.8882259287
 H    0.5356256011   -0.3790137220    0.8807165442
 H   -2.8097364405    1.2652984543    0.0290961148