19

 C   -0.1150567755    1.5200574806   -0.0308024829
 C    0.0637902904    0.0090422903    0.0141479789
 O    0.7572618534   -0.3877309081   -1.1607920194
 C    0.9357986627   -1.7939583431   -1.1845260764
 C    1.9388649393   -2.2376159380   -0.1189858034
 N    1.7125274621   -1.6118068260    1.1967461545
 C    2.2640718391   -0.2673511830    1.3805137046
 C    0.7976088848   -0.4603715630    1.2621055738
 H    0.8568791810    2.0209649508   -0.0396372400
 H   -0.6636573708    1.8092597713   -0.9314386994
 H   -0.6751686422    1.8646950024    0.8438164366
 H   -0.9320706013   -0.4705212946    0.0083064890
 H   -0.0350379070   -2.2925936174   -1.0280494241
 H    1.2915761113   -2.0578384768   -2.1849362880
 H    1.8772451798   -3.3260407817    0.0038849278
 H    2.9574478536   -2.0078835091   -0.4518232457
 H    2.7239593025   -0.0747104774    2.3466220345
 H    2.7694347099    0.1872075535    0.5303783298
 H    0.1888541370   -0.4369375808    2.1654116898