21

 C    0.0025696260    1.5155848608   -0.2841168801
 C   -0.0034319019    0.0321447369    0.0173477438
 C    1.2595798433   -0.7918823212   -0.0548652246
 C    0.5870591183   -0.5477997205    1.2790630739
 C    1.2483885022    0.3171705470    2.3357314605
 O    0.3002846424    1.0305700774    3.1133203983
 C    2.1271897316   -0.5371504940    3.2413082323
 C    2.4338537391   -0.1361638797    4.6161270538
 O    1.4261318076   -1.1263778316    4.3469856399
 H    0.9512815002    1.9865204884   -0.0111355182
 H   -0.1501317110    1.6911217502   -1.3545889852
 H   -0.7914306150    2.0338830779    0.2628320797
 H   -0.9031649989   -0.4744682515   -0.3232396728
 H    1.2249488497   -1.7870812044   -0.4842530400
 H    2.1863955914   -0.2593158436   -0.2509209343
 H    0.0512636820   -1.3939060727    1.7047310577
 H    1.8797253327    1.0734799842    1.8548374271
 H   -0.0588004855    0.3859012820    3.7389560871
 H    2.8077776793   -1.2168532004    2.7288015304
 H    3.3307029517   -0.5158171320    5.1017593991
 H    2.0539461248    0.8133394066    4.9841165817