22

 C   -0.2761738595    1.0259193851   -1.6910336448
 C   -0.0217956823   -0.1934501065   -0.8291022702
 C    1.3662425915   -0.6151865046   -0.3896366244
 C    2.6207546834    0.1472866492   -0.7637447182
 C    0.3699438604   -0.1112404738    0.6369280106
 C    0.5446018600    1.1969656460    1.3811354354
 C   -0.7664436027    1.7061067871    1.9721675528
 O   -0.4874277676    2.9008397194    2.6878414465
 H    0.3693037459    1.8696211259   -1.4364030112
 H   -0.1084022407    0.7960744208   -2.7494657037
 H   -1.3128634558    1.3669081354   -1.5902373475
 H   -0.6877515642   -1.0188322647   -1.0710593159
 H    1.5253477816   -1.6910866962   -0.3689892398
 H    2.4702783898    1.2288100083   -0.7908167538
 H    3.4251897805   -0.0511125249   -0.0465564768
 H    2.9798109933   -0.1574863048   -1.7532477587
 H   -0.0629472379   -0.8892425841    1.2637057558
 H    1.2613919960    1.0681206217    2.2020181463
 H    0.9549220187    1.9808351326    0.7382807439
 H   -1.4945663665    1.8836913083    1.1646627914
 H   -1.1976262608    0.9366264654    2.6339801530
 H   -1.3114952730    3.2278887443    3.0597334893