16

 N   -0.4025706246    1.6190027175    0.0466933334
 C    0.0012931036    0.3757150517   -0.3219886115
 O    1.1063405149    0.0985450850   -0.7477924667
 C   -1.0600166388   -0.6951480653   -0.1338809794
 C   -1.6421867664   -0.9132229631    1.2021495903
 O   -2.3755427271   -0.2159752587    0.1899211891
 C   -0.9829456041   -1.8243323946   -1.1172835452
 C   -0.1679782922   -3.0089324025   -0.8414863540
 O   -1.5951227196   -3.0520236553   -0.7330412448
 H    0.2191489306    2.3929310025   -0.1190720391
 H   -1.3819148601    1.7836301931    0.2151109803
 H   -2.0192072964   -1.9046799008    1.4376750629
 H   -1.3026010423   -0.3027969755    2.0363541087
 H   -1.1495782854   -1.5382129348   -2.1554083650
 H    0.2569725564   -3.5696030877   -1.6710372134
 H    0.3756396615   -3.0739978616    0.0985988744