16

 N   -0.2643874234    1.2851599333    0.2541033256
 C    0.0760562984   -0.0860895237   -0.0928527953
 C    0.4332205077   -0.9461709397    1.1707062650
 N   -0.8045564812   -1.6901646782    0.9556879201
 C   -1.1967101378   -0.9869369324   -0.2588699921
 C   -1.5193423890   -2.5541753934    1.7131511092
 O   -2.6162424078   -2.9733867715    1.4109809136
 C    1.0480120455   -0.1968098627   -1.1887809686
 N    1.8168311845   -0.2339995116   -2.0518822090
 H    0.5765511123    1.8102013611    0.4807943135
 H   -0.6900979227    1.7508021613   -0.5434276004
 H    1.3447039032   -1.5447002496    1.0783239806
 H    0.4609594150   -0.3497357759    2.0876251439
 H   -2.1331850919   -0.4293461746   -0.1706853498
 H   -1.2152461905   -1.6147063115   -1.1539471174
 H   -0.9806254424   -2.8391526509    2.6396889111