15

 O    0.5709976828   -0.1952968876    0.3383570279
 C    0.2650727507    0.9688240533    0.3808149310
 C    1.1880483543    2.1028487234   -0.0552147061
 C    1.4424919225    3.1007498848    1.0878762000
 C    2.7781065640    2.6369491308    1.6838640079
 O    3.2725514071    3.0340213411    2.7036260239
 C    3.3528096943    1.5749286817    0.7492495992
 N    2.5223770167    1.6544613670   -0.4557579679
 H   -0.7443581441    1.2917724175    0.7268899593
 H    0.6762587841    2.5949893611   -0.8959243581
 H    1.5710514635    4.1185769458    0.7061975680
 H    0.6615951366    3.1315269182    1.8521892144
 H    4.4077923088    1.7761330462    0.5381924901
 H    3.2941448432    0.6075262593    1.2743812783
 H    2.4543021156    0.7489138975   -0.9080887481