17

 C   -0.0494338710    1.3640188554   -0.0247572957
 O   -0.0370946706   -0.0698048146   -0.0551674627
 C   -1.2360874407   -0.6448625474   -0.1324333455
 O   -2.2891801138   -0.0515188300   -0.1847154363
 C   -1.1669173350   -2.1411065881   -0.1318370009
 N   -0.1198304044   -2.8397519008    0.0964186113
 C   -0.5620707028   -4.2451378255    0.0059278513
 C   -2.1177325922   -4.2056019106   -0.0064893563
 N   -2.3442193551   -2.8124366791   -0.4017079133
 H    0.9959901121    1.6644712572    0.0345261498
 H   -0.5147671726    1.7631562864   -0.9295068013
 H   -0.6037064337    1.7248224150    0.8453851231
 H   -0.1667320165   -4.6759202176   -0.9233508333
 H   -0.1538049411   -4.8307055013    0.8337507661
 H   -2.5593808698   -4.9050707049   -0.7208123848
 H   -2.5380970764   -4.4164183845    0.9872585076
 H   -3.2089970163   -2.3391897895   -0.1861321891