17

 C    0.0633468047    1.5086552681   -0.1876094298
 C    0.0025326133    0.0030665769   -0.0285448983
 C    1.2962481484   -0.7950467923   -0.0837098035
 C    0.5864004835   -0.6280691508    1.2261548246
 C   -1.1947951435   -0.6450125036   -0.5949469476
 N   -2.1772498571    0.0067722815   -1.2128169896
 N   -2.9926844578   -0.9950714324   -1.5259688079
 N   -2.5754368336   -2.1907003123   -1.1452513743
 N   -1.4313928683   -1.9881929324   -0.5498710354
 H    0.9815692143    1.8989001062    0.2603150352
 H    0.0480631207    1.7973738805   -1.2432066591
 H   -0.7880931532    1.9941205850    0.2994901914
 H    1.2581055136   -1.7694598684   -0.5560031177
 H    2.2079140995   -0.2334459044   -0.2570122291
 H    1.0051839483    0.0494824736    1.9624330022
 H    0.0718177492   -1.4904001659    1.6330668188
 H   -3.8636478821   -0.8587375092   -2.0163774098