18

 C   -0.0016565152    1.4938133864    0.0273217260
 C    0.0388022914   -0.0052199387   -0.0423825540
 C   -1.1725073831   -0.8429321397    0.4137441627
 C   -0.5466542939   -2.2597113509    0.3708935470
 C   -0.3940602978   -1.3813106831    1.5735171731
 N    0.8875225089   -0.7986273098    0.9906718828
 C    0.8655845494   -1.8895099603   -0.1040549183
 C    0.7314912190   -0.7951017631   -1.1780225818
 O    0.0678755220   -1.0437905026   -2.3841383606
 H    1.0028472340    1.9125101561   -0.0857102330
 H   -0.6340333458    1.8953386595   -0.7729301128
 H   -0.4084727531    1.8342342720    0.9853146482
 H   -2.2350485191   -0.6598088519    0.3157854044
 H   -1.1293942539   -3.1622311234    0.2405542531
 H   -0.6145200645   -1.5118621523    2.6252068762
 H    1.6535802667   -2.6418534298   -0.1063011864
 H    1.7036254225   -0.3560571646   -1.4200110884
 H   -0.7827631974   -1.4425332338   -2.1654366982