22

 C    1.7957610915    2.6935056556   -2.3588183564
 C    1.9043315876    1.2028884865   -2.1006333466
 C    3.1400383876    0.4633003785   -2.6620303061
 C    3.5095662320    0.2271482898   -1.1796946877
 O    2.3058015095    0.9067705477   -0.7383040478
 C    3.5606555511   -1.2032471244   -0.7198192655
 C    4.8766617412   -1.8845790091   -0.5216719390
 N    4.0123003085   -1.6012774150    0.6121350444
 C    4.4376799562   -0.5896848667    1.5705295650
 H    2.7481115702    3.1952461863   -2.1591335997
 H    1.5132952522    2.8835518912   -3.4004565083
 H    1.0330104074    3.1369948607   -1.7111959803
 H    0.9489502285    0.7121309757   -2.3298688179
 H    2.9229611558   -0.4446600109   -3.2282492887
 H    3.8389533741    1.0820727587   -3.2279219191
 H    4.4016833846    0.7743113358   -0.8528333580
 H    2.7179030784   -1.7959542058   -1.0767271917
 H    5.0055200725   -2.9309224243   -0.7865062447
 H    5.7711780745   -1.2726763174   -0.6461628463
 H    5.1117176370    0.1781176139    1.1605304404
 H    3.5552275898   -0.0886837348    1.9788401512
 H    4.9633457098   -1.0892474219    2.3905253027