19

 C    0.0782043029    1.5783275473    0.0296759800
 C   -0.0840774034    0.0578093267   -0.0456582208
 C    0.6313874185   -0.5528793866   -1.2459426363
 O    2.0626778644   -0.2841336740   -1.1803085748
 C    2.6275658606   -1.5650059450   -1.2170201910
 C    1.8523157018   -2.5025566355   -2.1913622587
 O    2.1248848604   -3.6594275022   -1.3354968759
 C    1.7879076644   -2.5880219245   -0.3948771076
 C    0.6345725416   -2.0742059995   -1.3157494500
 H    1.1362628890    1.8471331011    0.0852055806
 H   -0.3465524051    2.0653055598   -0.8551997711
 H   -0.4272154706    1.9856814353    0.9101342026
 H    0.3019865616   -0.4064981124    0.8701869922
 H   -1.1474410436   -0.2070954421   -0.1099601259
 H    0.2470859196   -0.1050408752   -2.1735283923
 H    3.7144633873   -1.5504301970   -1.1760214769
 H    1.9249480932   -2.6275647427   -3.2714042187
 H    1.7852228177   -2.8191966995    0.6696723270
 H   -0.3014611103   -2.6261870642   -1.3774024124