19

 C   -0.0127579944    1.5464586119    0.0480152440
 C    0.0540648020    0.0263589180    0.0182503396
 C    1.0897568289   -0.6279574070   -0.9778636239
 C    1.9025806969   -1.0493627281    0.2324197512
 O    2.7866206895   -2.1449164153    0.3817817739
 C    3.5606234348   -1.4090407032    1.3781529285
 C    2.7448475660   -0.1189242146    1.1189068240
 O    1.6569008054    0.1472350911    2.0241186190
 C    0.7723186831   -0.6784304452    1.2254019526
 H    0.9725501436    1.9904950390    0.2139505264
 H   -0.4048248154    1.9333396396   -0.8982051389
 H   -0.6669782831    1.8944571844    0.8536462712
 H   -0.9480097659   -0.3881024955   -0.1212277221
 H    0.6632742134   -1.4827251581   -1.5105011095
 H    1.5809391119    0.0285311261   -1.7020319729
 H    3.4426547655   -1.8186602774    2.3865515527
 H    4.6197133658   -1.3742717006    1.1018980503
 H    3.2841290892    0.7788083361    0.8093666422
 H    0.1809265928   -1.3699767413    1.8283171118