14

 O   -0.0313668974    1.3397335292    0.0096953787
 C    1.1416226244    2.0452305090    0.0022322448
 N    2.3228468503    1.5570072074   -0.0118649443
 C    2.4231182297    0.1895721749   -0.0203302482
 C    3.5106935000   -0.6401481589   -0.0354043229
 C    3.0122730558   -1.9945644863   -0.0379991213
 C    1.6361462184   -2.0191230433   -0.0248236460
 C    1.2070017056   -0.6538482458   -0.0132017061
 C    0.0216528018   -0.0126964759    0.0017662658
 H    0.9412285139    3.1091261423    0.0099918009
 H    4.5487700643   -0.3423647644   -0.0438153910
 H    3.6470963881   -2.8720436950   -0.0489462985
 H    0.9986367216   -2.8908069275   -0.0234323575
 H   -0.9675846065   -0.4542088157    0.0089097155