20

 C    0.1639910524    1.5930247743   -0.0788872961
 C    0.1104561073    0.0758613832    0.0224529711
 C    1.0219892553   -0.7948893131   -0.8971014857
 C    1.3316982563   -1.7384596284    0.3021525577
 C    2.6966991864   -1.5097317725    0.9686426254
 O    3.7691699424   -1.3515976672    0.0662973471
 C    2.1281602997   -0.2538532216    1.6998991447
 C    0.6901667531   -0.6640530497    1.2570641765
 H    1.1852191716    1.9743046841    0.0261651151
 H   -0.2096681289    1.9299011977   -1.0525153608
 H   -0.4510653465    2.0674912996    0.6944596065
 H   -0.9291254051   -0.2505025766   -0.1020033109
 H    0.5258846087   -1.2613402319   -1.7508432000
 H    1.9140671056   -0.2783970581   -1.2599280686
 H    0.9709807482   -2.7637922280    0.2134146835
 H    2.9079836244   -2.3124470021    1.6906888706
 H    4.5644990602   -1.1588401266    0.5726323233
 H    2.3003511413   -0.2165592841    2.7782168525
 H    2.4805575537    0.6829063871    1.2601970994
 H    0.0058539840   -0.9166699461    2.0683832888