17

 C    0.0421581777    1.5559236421    0.1213252742
 C   -0.0799571315    0.0674856843   -0.0415686302
 C    0.3198090444   -0.6578938436   -1.3451411544
 N   -0.7593923057   -1.6952232936   -1.1598422229
 C   -0.3321266258   -2.6744790617   -0.0935757346
 C   -0.6179070487   -1.6518052751    1.0187901099
 O    0.4357800232   -0.6654568863    1.1077778669
 C   -1.3558813009   -0.8186887595   -0.0520910339
 H    1.0982636938    1.8421449422    0.1817426073
 H   -0.4056568517    2.0778998981   -0.7299626667
 H   -0.4508815298    1.8886049155    1.0392933706
 H    0.1006959408   -0.0666609598   -2.2411074847
 H    1.3408873545   -1.0461962503   -1.4030090059
 H   -1.0325142199   -3.5166872412   -0.0791991635
 H    0.6920088629   -3.0490732571   -0.1795428107
 H   -0.9792895082   -1.9642438150    2.0011900817
 H   -2.3995863652   -0.5119976490   -0.0890417032