19

 O    0.0161935147    1.4337187233   -0.0034869886
 C   -0.0140382823    0.0417738288    0.1568771758
 C   -1.4206478857   -0.4855976778    0.0918102143
 N   -2.4232967108    0.3027039914   -0.0222270137
 C   -3.6074901508   -0.5307881401   -0.0310307620
 C   -4.7886372112   -0.1040610851    0.8040701268
 C   -4.8546606431   -0.0371050499   -0.7049886800
 C   -3.1312006206   -1.9933472252   -0.1100020468
 N   -1.7059691802   -1.8351407271    0.2203168677
 H   -0.9139074664    1.7058699653   -0.0512796901
 H    0.5921827834   -0.4468678134   -0.6243839053
 H    0.4264247463   -0.2567473249    1.1225359806
 H   -5.3575815468   -0.8768278692    1.3114011465
 H   -4.6925261888    0.8279147203    1.3488262616
 H   -4.8052411334    0.9392659340   -1.1730683333
 H   -5.4711033352   -0.7630976515   -1.2260470381
 H   -3.6365694612   -2.6493005069    0.6056671180
 H   -3.2657287702   -2.4135134467   -1.1171221580
 H   -1.0481432377   -2.5047088054   -0.1512346255