20

 C    0.0100077866    1.5153786724    0.0101846867
 C    0.0208983221    0.0592296041    0.0019285993
 C    0.0431620584   -1.1446460340   -0.0047567991
 C    0.0325575123   -2.6033092315   -0.0124829123
 C   -1.3918712480   -3.1941261144   -0.0019289321
 C   -1.3874383748   -4.7246084576   -0.0100693549
 C   -2.8163788026   -5.3036437565    0.0005948420
 C   -2.8325026533   -6.7648935226   -0.0067631695
 N   -2.8251197028   -7.9204488160   -0.0131049679
 H    1.0280515246    1.9203985182    0.0027601623
 H   -0.5107961565    1.9161700455   -0.8665535587
 H   -0.4939770786    1.9062422434    0.9011229283
 H    0.5701249330   -2.9736558164   -0.8959430727
 H    0.5870180762   -2.9830556299    0.8564309758
 H   -1.9237108012   -2.8251636653    0.8832229817
 H   -1.9405812526   -2.8158710596   -0.8727464278
 H   -0.8586978784   -5.0962173653   -0.8953106048
 H   -0.8418680789   -5.1054977891    0.8608985558
 H   -3.3601089470   -4.9550432292    0.8865627077
 H   -3.3769401187   -4.9458544761   -0.8711253298