20

 C    0.0410483203    1.5142687405    0.0027553378
 C    0.0134622491    0.0069073773    0.0357540560
 C   -0.8856123811   -0.7188952160    1.0060011750
 C    0.6169876635   -0.8173783869    1.1490134385
 C    1.2926515929   -2.0324020096    0.5170318544
 O    0.6853652770   -3.2304449191    0.9932519728
 C    1.1550552679   -1.8092670064   -0.9991129732
 C   -0.1944926609   -1.9024022287   -1.6127575949
 N    0.3695719881   -0.5928054161   -1.2666180011
 H    1.0009610316    1.8743258680   -0.3808433077
 H   -0.7461458237    1.9025106243   -0.6522937781
 H   -0.1124317340    1.9314580031    1.0028351656
 H   -1.4038993370   -0.1006792198    1.7320331170
 H   -1.4377521117   -1.6049415564    0.7216194579
 H    1.0938091317   -0.3581085072    2.0077923014
 H    2.3607456644   -2.0284695409    0.7791087864
 H    1.0824265061   -3.9694317592    0.5208661017
 H    2.0425301495   -1.9549055252   -1.6117427677
 H   -0.2877257025   -2.0796213331   -2.6812603231
 H   -0.9997882212   -2.3206472384   -1.0200239586