18

 O    0.4296748309    0.9048388954   -0.0697513213
 C    0.0574049690   -0.4602682087   -0.0062573544
 C   -1.4722835301   -0.6864906657    0.0354629486
 O   -1.7349388770   -2.0607181020   -0.2197624213
 C   -2.0325786283   -0.4182973276    1.4331914554
 O   -1.6402530314    0.8985908823    1.8265968449
 C   -2.1826139197    0.1762215994   -1.0178884309
 O   -1.7246371944   -0.1590769901   -2.3242237740
 H    0.0161322118    1.3234333548    0.6969275942
 H    0.4485880906   -0.9360593039   -0.9115317056
 H    0.5155956750   -0.9772652839    0.8508055757
 H   -1.6860399104   -2.1567857210   -1.1803915938
 H   -3.1271551795   -0.5177194965    1.4211475476
 H   -1.6283886296   -1.1771907878    2.1167866926
 H   -1.8816653679    1.0318943801    2.7470750227
 H   -3.2524552352   -0.0573546128   -0.9978232440
 H   -2.0503055233    1.2405399717   -0.8025737288
 H   -0.8830271805    0.2928446664   -2.4506278675