23

 C   -0.0914181605    1.5767249275   -0.1052266143
 C    0.0326798795    0.0419580817   -0.0436239181
 C   -1.3491488680   -0.6086789417    0.1554834861
 C    0.7399897581   -0.5069865563   -1.2570624305
 C    1.9255680853   -1.1253990521   -1.2638523800
 C    2.3216979366   -1.6305630846   -2.6281814447
 O    2.2787063457   -3.0595334701   -2.7015297706
 C    1.3116575131   -0.9173733281   -3.5657587927
 C    0.1557648182   -0.4311402225   -2.6583849491
 H    0.8890314104    2.0483691763   -0.2204669873
 H   -0.7189352478    1.8930458588   -0.9452771694
 H   -0.5492588025    1.9612638231    0.8120815476
 H    0.6485152438   -0.2060166141    0.8302407586
 H   -2.0259450801   -0.3691128942   -0.6717435368
 H   -1.2693580878   -1.6982761249    0.2212822898
 H   -1.8144839451   -0.2466870043    1.0779976643
 H    2.5255478336   -1.3276394542   -0.3822132986
 H    3.3552699693   -1.3870509156   -2.8952365225
 H    1.4601630829   -3.3384343908   -2.2762833449
 H    1.7971106434   -0.0575862751   -4.0378287909
 H    0.9898430467   -1.5900336627   -4.3644393435
 H   -0.7385540971   -1.0630740520   -2.7406561930
 H   -0.1709633476    0.5814244459   -2.9197736996