18

 O    0.1600924562   -0.0637578336    0.1183203262
 C    0.0175120971    1.1344584219    0.0532457167
 C   -1.3505458236    1.8000738701    0.0958350845
 C   -1.5776506645    2.6369390924    1.3379079797
 C   -0.7201021711    2.8984715794    2.3247760368
 C    0.7085041037    2.4033479568    2.4277180429
 N    1.5133164000    2.7950225608    1.2584366935
 C    2.4314462264    1.7885644179    0.7162267171
 C    1.1738561070    2.1081507675    0.0016706606
 H   -1.4570627435    2.4470465111   -0.7879095875
 H   -2.1183299694    1.0221508764    0.0183340263
 H   -2.5794991461    3.0556850645    1.4055496555
 H   -1.0703241863    3.5156742678    3.1474623357
 H    1.1885423473    2.8393434035    3.3084569772
 H    0.7084003292    1.3106167678    2.5803054147
 H    3.3805819266    2.1710305573    0.3528061527
 H    2.4764682892    0.8150850383    1.2001867582
 H    1.1764009518    2.7612313399   -0.8706793708