19

 C   -0.1652759392    1.3986400652    0.0067217430
 N   -0.0896452716   -0.0348149741   -0.1486000550
 C    0.5624602428   -0.6184924207   -1.1797393357
 N    1.1580472996    0.0713764535   -2.0877275912
 C    0.4859129900   -2.1434492717   -1.1026618098
 O   -0.1047261155   -2.6849793069   -0.1994170076
 C    1.1819729201   -2.9268177345   -2.2063069888
 O    1.0149730893   -4.2919373080   -1.9843366920
 C    1.6349968945   -5.0853861499   -2.9715245308
 H    0.8348521140    1.8386245132    0.0938722941
 H   -0.6509048851    1.8637450116   -0.8589274510
 H   -0.7383438800    1.6297628646    0.9064709833
 H   -0.5249167613   -0.6598651830    0.5098812843
 H    1.5951114304   -0.5257026728   -2.7840844285
 H    0.7611299710   -2.6118757619   -3.1788353201
 H    2.2490240661   -2.6382504073   -2.2217612915
 H    2.7225125046   -4.9160194371   -3.0082946679
 H    1.4471024569   -6.1284058464   -2.7087177111
 H    1.2214356732   -4.8886709438   -3.9730187639