15

 C    1.0758291463    0.9731733690    0.5675325734
 C    0.2149866589   -0.1930472291    0.2089995453
 N    0.2035747487   -0.7041178183   -0.9926739161
 O   -0.6951321225   -1.7354079708   -0.9655872712
 N   -1.2609380414   -1.8626070341    0.2669304147
 C   -0.7162415558   -0.9360039249    1.0095161375
 C   -1.1140656099   -0.7757864936    2.4226142362
 C   -0.1453034226   -0.4894621598    3.4950413302
 O   -0.9905621372    0.5370660906    2.9807612258
 H    1.9115019135    0.6632826850    1.2045089093
 H    1.4885447704    1.4218936958   -0.3373817790
 H    0.4984388019    1.7168237360    1.1203073443
 H   -2.0277238661   -1.3046911391    2.6854825600
 H   -0.3698788834   -0.8202214556    4.5074606152
 H    0.9121148694   -0.3918793609    3.2578866644