19

 C   -0.0930320168    1.4707208675   -0.0299705135
 C   -0.0612071906    0.0142538360   -0.0079397259
 C   -0.0042531735   -1.1902868940    0.0061431036
 C    0.0317706993   -2.6496457573    0.0326127639
 C    0.6102500463   -3.1852569452    1.3801950042
 C   -0.6275113162   -3.4986231979    2.1878092945
 C   -1.7257525606   -3.5200772492    1.4381356672
 C   -1.4308222729   -3.2392820521   -0.0205324105
 O   -2.3753077346   -2.4320666536   -0.6850586097
 H    0.9181217746    1.8875887870    0.0338435328
 H   -0.5475226018    1.8462735669   -0.9532673169
 H   -0.6691989499    1.8713034430    0.8113071716
 H    0.6165701203   -3.0053255476   -0.8213143573
 H    1.2053117510   -4.0923768124    1.2083197036
 H    1.2721398834   -2.4600147902    1.8623589709
 H   -0.5841489424   -3.7139812833    3.2499340043
 H   -2.7305405809   -3.7512218385    1.7725421281
 H   -1.4178870409   -4.1794624648   -0.5878456237
 H   -2.2304431640   -1.5248838844   -0.3841917674