16

 N   -0.0180039347    1.3100831818    0.3348307560
 C   -0.0216230317   -0.0346445551    0.0693164305
 N   -1.1065186569   -0.7079318985   -0.2398682102
 O   -0.6173375732   -2.0356602948   -0.3402997988
 C    0.6945364786   -1.9820465811   -0.0905981677
 N    1.1309329262   -0.7829607762    0.1685477887
 C    1.4727829145   -3.2199658526   -0.1310612179
 C    0.8464004319   -4.5263408799    0.3294593536
 C    1.1142837751   -4.3122321556   -1.1258442578
 H    0.8719278557    1.7562543460    0.1742507429
 H   -0.8080921839    1.8191063534   -0.0316428343
 H    2.5206623394   -3.0585480345    0.0862465708
 H    1.4838205161   -5.2035242962    0.8859709388
 H   -0.1817379849   -4.4820316942    0.6682799470
 H    0.2678097082   -4.1229547986   -1.7751042608
 H    1.9394590397   -4.8395863037   -1.5902157009