17

 O    0.1746563511    1.3307058627   -0.0029566427
 C   -0.0136196988   -0.0694527912    0.0204994276
 C   -1.4479699162   -0.4964917193    0.0504607679
 C   -2.5312763609    0.2882002707    0.1311630869
 C   -3.7711058330   -0.5163857505    0.0937248428
 O   -4.9062965444   -0.1218902902    0.2191558039
 C   -3.3440432346   -1.9762948301   -0.1387469317
 C   -1.8098413212   -1.9705764763    0.0009186426
 O   -1.1024185739   -2.5698701214   -1.0795992818
 H   -0.1504918521    1.6571759206   -0.8483984424
 H    0.4837166094   -0.5746552354   -0.8210757876
 H    0.4879483442   -0.4318340280    0.9283818345
 H   -2.5333119222    1.3657662248    0.2289762721
 H   -3.8636682494   -2.6470381485    0.5497590213
 H   -3.6133761736   -2.2634486929   -1.1606119567
 H   -1.5050819354   -2.4416076600    0.9500365274
 H   -1.2479188089   -3.5202755351   -1.0423163941