19

 C   -0.0668072753    1.4767766795    0.2144566040
 C    0.0793358775   -0.0335142263    0.1509500939
 O    1.1317205638   -0.5857582713    0.3748195457
 C   -1.1799586556   -0.8101712541   -0.2244779444
 C   -1.0255702150   -2.3030779696   -0.0769915430
 C   -1.3895839214   -2.9913480956    1.2032651668
 C   -2.2500278281   -3.2115826131   -0.0352059819
 C   -3.5758791804   -2.6698264257   -0.1003037526
 C   -4.6897916107   -2.2181885093   -0.1642765081
 H    0.9108829641    1.9400606186    0.3517846995
 H   -0.5417508268    1.8635361074   -0.6936256404
 H   -0.7180256540    1.7499441939    1.0532045805
 H   -2.0261372961   -0.4384660132    0.3654234135
 H   -1.4259814188   -0.5445178761   -1.2637180214
 H   -0.1721232123   -2.7125649423   -0.6063388304
 H   -0.7804130293   -3.8200709162    1.5448194229
 H   -1.8258088965   -2.3930783615    1.9956778438
 H   -2.1335726094   -4.1729069879   -0.5271913075
 H   -5.6756684556   -1.8279988473   -0.2165863409