15

 C   -0.0597248673    1.5482023397    0.0453055476
 C   -0.0114197397    0.0214983852   -0.0021567216
 C    0.7592208310   -0.5258964568   -1.2396348368
 C    2.1627518300   -0.0979933934   -1.2412754682
 C    3.3065144736    0.2687780625   -1.2277941726
 C    0.6507777705   -1.9861693407   -1.3195445827
 C    0.5333503544   -3.1804899889   -1.3656764938
 H    0.9470210373    1.9733130815    0.0855795565
 H   -0.5631071944    1.9574880979   -0.8377997313
 H   -0.6083289065    1.8879247261    0.9285566244
 H    0.4636760956   -0.3775099616    0.8995059592
 H   -1.0237853279   -0.3933603980   -0.0404313991
 H    0.2792507526   -0.1027184014   -2.1351281262
 H    4.3209841366    0.5827520778   -1.2249810117
 H    0.4406385541   -4.2371536800   -1.4151441837