16

 O    0.1423030962    1.3585002582    0.2313602230
 C    0.0453724147   -0.0166594890    0.0668493441
 C   -1.3493948908   -0.6391699767    0.0067630719
 N   -1.9755811537   -0.0449806445   -1.2071893059
 C   -1.0985047686   -1.2357562897   -1.3294953434
 C    0.3174095089   -0.6267288115   -1.4170231677
 O    0.4967895226    0.3131023327   -2.4415240062
 C    1.3865300212   -1.6066251502   -1.4350868264
 C    2.2559476558   -2.4355804978   -1.3997515823
 H   -0.5022796383    1.7583133988   -0.3653619375
 H    0.6983055569   -0.4919139210    0.7997768888
 H   -1.9652160929   -1.0003056765    0.8207525500
 H   -2.9438618685   -0.3540048334   -1.2544299771
 H   -1.4538984438   -2.1602539483   -1.7658282029
 H   -0.3619661838    0.7486696011   -2.5381024563
 H    3.0333975342   -3.1589928823   -1.3841887119