17

 C    0.0534152910    1.5262417753    0.0294642943
 O    1.2115720073    0.6534217780    0.0139840372
 C   -0.0746693899    0.0783382310   -0.0015000409
 C   -0.6117646628   -0.9990548338    0.9307230881
 C   -1.8548039036   -1.1558346647   -0.0322122803
 C   -2.1950119990   -2.6388935160   -0.0645209664
 C   -1.0066535208   -3.2433014893   -0.0741153218
 C   -0.0127877851   -2.0927147357   -0.0472646694
 C   -0.6068272762   -0.9586069226   -0.9812144834
 H   -0.0967803856    2.0729531484    0.9596301427
 H   -0.0920429803    2.1118216535   -0.8775078899
 H   -0.6180598271   -1.0283670844    2.0219029043
 H   -2.6479878687   -0.4083236201   -0.0184522212
 H   -3.1901263848   -3.0599745756   -0.0760497583
 H   -0.7627842462   -4.2957692031   -0.0956993858
 H    1.0595904970   -2.2807107536   -0.0484668334
 H   -0.6074822052   -0.9417448174   -2.0726756657