22

 C   -0.0841897686    1.5152764478    0.0114172998
 C   -0.0261175146   -0.0029948877    0.0024624584
 O   -1.3452910979   -0.5058206789    0.0122760337
 C   -1.4068627134   -1.9149735952    0.0051727214
 C   -2.8686746946   -2.3411061560    0.0168351935
 C   -3.0360479133   -3.8625095606    0.0101660337
 C   -4.4961727095   -4.2939070076    0.0216463118
 O   -4.5333443052   -5.7133433634    0.0141320187
 H    0.9256902795    1.9363102744    0.0041271523
 H   -0.6209226418    1.8837131146   -0.8674748983
 H   -0.6040439975    1.8738998534    0.9044015566
 H    0.5130060945   -0.3640530554   -0.8905782291
 H    0.5299195875   -0.3738546570    0.8809966416
 H   -0.8975218931   -2.3179382264   -0.8881371478
 H   -0.8805628903   -2.3276092989    0.8841216615
 H   -3.3492586622   -1.9083695322    0.9029151317
 H   -3.3660823328   -1.8988186626   -0.8551317980
 H   -2.5553144567   -4.2956990395   -0.8757460809
 H   -2.5386651174   -4.3052489112    0.8820519949
 H   -4.9966899920   -3.8862885071    0.9155012425
 H   -5.0135316108   -3.8764753811   -0.8579849796
 H   -5.4542296897   -5.9895717294    0.0222161017