16

 N    0.1099404890    1.5513252405    0.1863612972
 C    0.0266921492    0.1681033207   -0.0470965946
 C   -1.0092801146   -0.7540391527    0.0111355051
 O   -2.2955343730   -0.4504369186    0.3090526205
 N   -0.6209926888   -2.0532812353   -0.2254880293
 C    0.6802168404   -1.9219271904   -0.3880982862
 C    1.9858119127   -2.4563267558   -0.9449231144
 C    2.4405388384   -0.9443292961   -0.8808067447
 N    1.1284423961   -0.6609290984   -0.2592420846
 H   -0.4038445399    1.8181767839    1.0196019936
 H   -0.2666742355    2.0944016235   -0.5843145137
 H   -2.7765230546   -1.2865433506    0.2971455799
 H    2.5488704439   -3.1416802434   -0.3065344198
 H    1.9377833177   -2.8652161370   -1.9572969713
 H    3.2929715686   -0.7081954440   -0.2397326931
 H    2.5684793502   -0.4761857564   -1.8602020048