20

 C   -0.0546923787    1.5338954304   -0.3158530185
 C   -0.0541289273    0.0521757392   -0.0095639767
 C    1.1597902453   -0.8050993586   -0.2641274370
 C    0.7102707764   -0.5473817437    1.1555896355
 C    1.5090629806    0.2581435388    2.1551509928
 C    2.8742892813    0.7812341575    1.7648110275
 C    0.7817444374    0.9079312294    3.2609296040
 O    1.4814874026   -0.3170874998    3.4773338645
 H    0.9236343387    1.9912996833   -0.1438921826
 H   -0.3190288513    1.7127622092   -1.3639317612
 H   -0.7817691839    2.0693951562    0.3049319417
 H   -1.0101037399   -0.4280963029   -0.2039941640
 H    1.0318926362   -1.8009221835   -0.6743697944
 H    2.0570223444   -0.3008064455   -0.6078264698
 H    0.2124002060   -1.3745934794    1.6522684022
 H    2.8209974518    1.4872799846    0.9304165020
 H    3.3348150741    1.2893940010    2.6153344725
 H    3.5265369370   -0.0444957658    1.4628329399
 H    1.2057923802    1.7843104637    3.7514532839
 H   -0.3050018411    0.8387022658    3.3010578679