15

 C    0.1616066886    1.5378455465   -0.0023112129
 C   -0.0321767229    0.0646141429    0.0534978266
 C   -1.1242906651   -0.7362125460   -0.0756695480
 C   -0.5846205133   -2.0421759424    0.0887875493
 N   -1.2331751891   -3.2705542186    0.0565795150
 C   -2.5734183570   -3.4739432255   -0.1479523381
 O   -3.3976496985   -2.6090002821   -0.3322449721
 N    0.7136862292   -2.0307773023    0.2979610165
 O    1.0652937651   -0.6833509291    0.2751251975
 H    0.8576055933    1.8104406902   -0.8022407677
 H   -0.7925800562    2.0345982391   -0.1855327763
 H    0.5768937419    1.9132903367    0.9385299975
 H   -2.1491311105   -0.4715436150   -0.2569768020
 H   -0.6422041144   -4.0770408420    0.1997507968
 H   -2.8176869412   -4.5524548425   -0.1236848119