17

 C   -0.0091523763    1.4707980656   -0.3446346605
 O    1.0732140793    2.1026042472    0.3502745618
 C    2.0240382903    1.1530382488    0.8542846312
 C    2.1499595788    1.3332742319    2.4043768263
 N    0.8639998482    0.7968605827    2.9485471874
 C    0.4649271686    0.0033267636    2.0474491610
 N   -0.8318289525   -0.1934534643    1.4304234951
 C   -0.0977021567    0.0025806710    0.1061594154
 C    1.2806311014   -0.1720573221    0.7891374564
 H   -0.9198666347    2.0338473174   -0.1247405549
 H    0.1738420308    1.4972245631   -1.4296554039
 H    2.9749066713    1.2326427208    0.3148099035
 H    3.0322268550    0.8153280754    2.8031729294
 H    2.2192434792    2.3893056928    2.6777241438
 H   -1.2190354441   -1.1305898894    1.5071941734
 H   -0.4097526048   -0.6831190750   -0.6825350073
 H    1.8325395764   -1.0979130595    0.6388173519