19

 O    0.1803762497    1.3031038292   -0.4242716485
 C    0.0329146165   -0.0246384757    0.0457484808
 C    0.3614582787   -0.2177662508    1.5387261298
 O   -0.3421087821   -1.3862195925    1.9231271663
 C   -1.5734303773   -1.4276208579    1.1953940988
 C   -2.7764539119   -0.8533815363    1.9834140291
 O   -3.4666351922    0.0031743879    1.0911030324
 C   -2.4735894978    0.6369665057    0.2943877158
 C   -1.4377807433   -0.4647373045   -0.0149268215
 H    1.1175905339    1.5196738242   -0.4332577760
 H    0.6438388214   -0.7182887341   -0.5494374423
 H    1.4240047106   -0.3806302213    1.7443039906
 H    0.0316132226    0.6726210647    2.0982741572
 H   -1.7359429531   -2.4698080460    0.9106564581
 H   -3.4790300949   -1.6149264001    2.3307038863
 H   -2.3899193939   -0.3066300914    2.8591285414
 H   -2.9614145132    1.0385117298   -0.5956594486
 H   -2.0087212107    1.4730115579    0.8361337529
 H   -1.6781461130   -0.9567926688   -0.9581724527