15

 O   -0.1442776403    1.4528251033   -0.0591050685
 C   -0.0555024460    0.0516709770   -0.2499621050
 C   -1.3551773209   -0.5477941533    0.2827386463
 C   -1.4126755343   -2.0528789010    0.1282372030
 C   -2.6676697356   -2.7487344787   -0.2235873758
 O   -1.6471228383   -2.5499179310   -1.1964558089
 C   -0.4155582761   -2.8056489775    0.8768759991
 N    0.3808582797   -3.3771891941    1.4891534971
 H    0.6695754557    1.8531436683   -0.3784387885
 H    0.0566542593   -0.2088642232   -1.3131834860
 H    0.8019212539   -0.3771610783    0.2910600704
 H   -1.4665967483   -0.2825505569    1.3398858858
 H   -2.1989446551   -0.1122873528   -0.2603513460
 H   -2.8190460514   -3.7777863456    0.0949616294
 H   -3.5675554023   -2.1500764762   -0.3526993723