21

 C    0.0366476797    1.5992720967    0.2296528824
 C   -0.0051988773    0.0732264035    0.0269010360
 C   -1.3921406835   -0.4760290016   -0.1003875434
 C   -2.1874589509   -0.7462674773   -1.2015581226
 C   -1.8456819998   -0.5854557900   -2.6508937099
 C   -3.4143197803   -1.2151940858   -0.6563991308
 C   -4.6358574334   -1.6571423434   -1.3979186548
 N   -3.3836255770   -1.2342728562    0.6736989477
 N   -2.1529499046   -0.7790401223    0.9860080719
 H    1.0686207603    1.9520144326    0.3221206198
 H   -0.4281933801    2.1168473821   -0.6145054895
 H   -0.5045896166    1.8913343338    1.1349800454
 H    0.5617751193   -0.1898329616   -0.8721675167
 H    0.5086050670   -0.4197478394    0.8622527905
 H   -2.0645371571   -1.4963429233   -3.2203013508
 H   -2.4144373976    0.2262448260   -3.1217659358
 H   -0.7844097457   -0.3597774143   -2.7919540649
 H   -4.4142581207   -2.4842146240   -2.0828228955
 H   -5.3992459511   -1.9906814834   -0.6918539397
 H   -5.0574992467   -0.8456511066   -2.0029165845
 H   -1.8855275439   -0.7232228454    1.9539108351