17

 C    0.0170222582   -3.7716725146    0.1083343384
 C    0.0156862689   -2.5643985933    0.0780945897
 C    0.0109423607   -1.2042429966    0.0428591876
 C    0.0059504756    0.0053974428    0.0129969960
 C    0.0120002668    1.4582388068   -0.0325727543
 C    1.4145831643    2.0529469184   -0.2048204653
 C    1.5427712549    3.5877878881   -0.0913295865
 C    2.5229855143    3.2707681523    1.0558805552
 O    2.2463727178    1.8570661701    0.9568859470
 H    0.0211714093   -4.8327309235    0.1377732679
 H   -0.6130669463    1.8063198704   -0.8672648839
 H   -0.4286359351    1.8640382841    0.8871826539
 H    1.8845151154    1.6256566910   -1.1004363598
 H    1.9572221077    4.1021108109   -0.9590173054
 H    0.6242572284    4.0902025334    0.2206545563
 H    3.5751072494    3.4952037070    0.8406851566
 H    2.2703669695    3.6696386226    2.0447171966