21

 C    0.0773872522    1.5165964329    0.2256901068
 C    0.0081200337    0.0254588954   -0.1330586303
 C   -1.3938299408   -0.5195421309   -0.0848476193
 C   -2.0787391900   -0.9609907830    1.1750589855
 C   -1.9244297555   -1.9619745379    0.0592501031
 C   -2.9377210107   -1.7365847391   -1.0848770972
 C   -4.3129226542   -1.1196801376   -0.7557648239
 O   -3.7546013178    0.2222525207   -0.7725602160
 C   -2.4590428595   -0.2800151757   -1.1883545733
 H    1.1033442080    1.8920234137    0.1602208918
 H   -0.5415659311    2.1145223960   -0.4517340192
 H   -0.2856463240    1.6914757361    1.2433716161
 H    0.4305542827   -0.1296724045   -1.1352898402
 H    0.6403500932   -0.5503189669    0.5547216422
 H   -1.4122606729   -1.1262512752    2.0165648913
 H   -3.0452652460   -0.5515158551    1.4476146379
 H   -1.3622394096   -2.8776792864    0.2024872556
 H   -2.8687166847   -2.4327865493   -1.9189846506
 H   -5.0621661081   -1.2423176117   -1.5477327676
 H   -4.7643705681   -1.3727433990    0.2105872774
 H   -2.0984872467    0.1873596475   -2.1091877499