18

 C   -0.0726215351    1.5788390713    0.0745574026
 C    1.4667743520    1.4944950156   -0.0287146077
 C    2.2129956480    1.5704687183    1.3069292851
 C    1.9269378315    0.3599994607    2.2112726997
 O    0.5413436115    0.0903278463    2.3885128524
 C   -0.0547067105   -0.6558486657    1.3420589363
 C    0.0049142447    0.0430680811   -0.0128397902
 O    1.3735322559    0.1196210391   -0.4963433075
 H   -0.4920197446    2.0031389314    0.9867885975
 H   -0.5308412157    2.0325352271   -0.8053888858
 H    1.9356619225    2.1364966982   -0.7813477165
 H    3.2955492412    1.6093957543    1.1324145304
 H    1.9354452682    2.5031677056    1.8134260075
 H    2.4284667612   -0.5259299987    1.7991822751
 H    2.3298551154    0.5460568724    3.2120335479
 H    0.4240230901   -1.6443248990    1.2475716988
 H   -1.0993414451   -0.8057259802    1.6383995677
 H   -0.6451987411   -0.4662363477   -0.7337156133