22

 C    0.0210675341    1.5991908758   -0.0176104785
 C    0.1164015366    0.0729976070    0.0084923104
 C    0.8645848847   -0.5547570072   -1.1645161360
 C    2.3496603431   -0.5800013149   -1.1253285482
 N    1.5702352514   -1.7727440463   -0.7315754274
 C    1.3405971992   -1.8979253268    0.7254608081
 C    2.5566272092   -2.4568596376    1.4552577674
 C    0.8111513890   -0.5321225330    1.2515497141
 O    1.8368570902    0.3549701444    1.6942552572
 H    1.0118528728    2.0554282738    0.0233024876
 H   -0.4763190067    1.9338736891   -0.9338213812
 H   -0.5568222584    1.9743910095    0.8329823786
 H   -0.9020725219   -0.3382007839   -0.0092151000
 H    0.3486955764   -0.6070077860   -2.1203295470
 H    2.9054995083   -0.7055844588   -2.0504205388
 H    2.8503702429   -0.0011591976   -0.3574002422
 H    0.5155253991   -2.6164074332    0.8261775050
 H    3.4093067269   -1.7746900579    1.3885027586
 H    2.3349226673   -2.6329719186    2.5142657170
 H    2.8543965533   -3.4103975253    1.0117382265
 H    0.0886329446   -0.6858904775    2.0658016157
 H    2.2487834178   -0.0341018452    2.4714929533