13

 N   -0.0892624305   -1.1965903421   -0.1371842123
 C   -0.0378057292   -0.0451918362   -0.0438991712
 C    0.0722162308    1.4125117436    0.0689275695
 C   -0.1663138244    1.9449244929    1.5155196188
 C    1.3852110799    2.0162791888    1.6267701599
 N    1.4615463197    1.9258924491    0.1495049645
 C    1.9754134792    3.2230286410    2.2036171337
 N    2.4324411929    4.1731820722    2.6759475938
 H   -0.5205199448    1.8765122287   -0.7245274443
 H   -0.6322227482    2.9291886504    1.5121874114
 H   -0.6752715510    1.2824764430    2.2120828437
 H    1.7887415945    1.1428188962    2.1549688241
 H    2.1879675611    1.3243984826   -0.2239504116