23

 C   -0.8092239672    1.3920391765    0.4165175251
 O   -0.4736961605    0.0293405783    0.3166817483
 C    0.0709034756   -0.4889506461    1.5106620585
 C    0.3848669290   -1.9440383341    1.2826785901
 O    1.6927471264   -2.2791867175    0.8050627736
 C    1.3137914266   -2.7316711959    2.1079965100
 C    2.0997152384   -2.2119102901    3.2963157668
 C    1.3430409009   -2.5031523733    4.6004839739
 C    3.5031610860   -2.8354963197    3.3016847131
 H    0.0716835001    2.0160651015    0.6358141717
 H   -1.2265191062    1.6970046305   -0.5460306094
 H   -1.5598034639    1.5723059538    1.2032828979
 H    0.9809114619    0.0597755534    1.7948726851
 H   -0.6554460030   -0.3884542679    2.3378689759
 H   -0.4221324049   -2.4753537237    0.7751561506
 H    1.1237674274   -3.8086923022    2.1543696633
 H    2.2117324573   -1.1272730360    3.1896732077
 H    1.9018641097   -2.1321923732    5.4652460503
 H    0.3552203398   -2.0309369299    4.6086973284
 H    1.1986100201   -3.5811282189    4.7385759347
 H    4.0247477679   -2.6210818696    2.3648074781
 H    4.1030918758   -2.4435254364    4.1291302458
 H    3.4471737432   -3.9245117197    3.4165631906