16

 C    0.0867223899    1.5609429300   -0.0678155925
 C    0.1228197168    0.0554511561    0.0121665947
 O   -1.0480234015   -0.5205323316   -0.4813564554
 C    1.3599058810   -0.7904232472   -0.2024860344
 N    2.5537571545   -0.2048115998    0.4073703247
 C    1.9761870515   -0.1223111427    1.6948798669
 O    2.3897237856    0.3109350091    2.7316266184
 C    0.6941164935   -0.7651707652    1.1858674306
 O   -0.1727328044   -1.6277294103    1.8136825830
 H    1.0285110550    2.0142745397    0.2480241869
 H   -0.1180227968    1.8635407499   -1.0995316185
 H   -0.7145206651    1.9515834565    0.5656533380
 H   -1.3340221059   -1.1907432669    0.1550900431
 H    1.4209484323   -1.6040568843   -0.9136563235
 H    3.0616530161    0.5740473363    0.0027347442
 H    0.2929990874   -2.4376203595    2.0515957539