19

 C   -0.1233982469    1.5642000912    0.0672443882
 C    0.0813460867    0.0561470952    0.0407369858
 C    0.8951117406   -0.6338232652   -1.1304389976
 C    0.5630077775   -0.6645350778   -2.5931042798
 C    2.2058718903   -0.1066118063   -0.4373658395
 C    1.3230192450   -0.5968335746    0.7671231785
 O    1.6260803260   -0.5465450596    2.1046382564
 C    1.0307682816   -1.7954025701   -0.1340650677
 O    0.9587135282   -2.9872013979   -0.0696854417
 H    0.7796177631    2.1402705450   -0.1445698635
 H   -0.8831391295    1.8554025609   -0.6659552684
 H   -0.4837157511    1.8695941998    1.0548660624
 H   -0.8677372411   -0.4446111571    0.2619732961
 H    0.5162955240    0.3452430831   -3.0140344438
 H    1.3160493992   -1.2278622662   -3.1533649446
 H   -0.4059722259   -1.1456571608   -2.7612937929
 H    3.1276123864   -0.6573635865   -0.6367802331
 H    2.3676630911    0.9683109416   -0.4943176578
 H    1.6362804147   -1.4493586548    2.4436345829