20

 C   -0.2410474640    1.5541733125   -0.1740105904
 C   -0.0349741773    0.0414203369   -0.0550017940
 C    0.9283925638   -0.5013992150   -1.1458730508
 O    2.2723491172   -0.3789570833   -0.6168464394
 C    2.1702658027   -0.2422263793    0.7177500834
 N    3.0757171514    0.0802221945    1.5407590219
 C    2.3871239304    0.2109213512    2.8431469598
 C    0.8565522729    0.3485782475    2.5375133773
 C    0.7496414598   -0.3991888598    1.2012258144
 H    0.7094496571    2.0951897992   -0.1144672633
 H   -0.7074685372    1.8035918055   -1.1323392741
 H   -0.8918093949    1.9299515558    0.6209652580
 H   -1.0012360678   -0.4651513074   -0.1340914575
 H    0.7363483205   -1.5582009836   -1.3673344490
 H    0.8923408709    0.0661275708   -2.0790167038
 H    2.5917468873   -0.6731135458    3.4630526418
 H    2.7822665586    1.0756989926    3.3846086989
 H    0.2230592308   -0.0608116080    3.3277053002
 H    0.6023842750    1.4058315841    2.4153939697
 H    0.5535696629   -1.4666964383    1.3774921368