20

 C    0.1307776533    1.1361852432   -0.3863862370
 N    0.0371488718   -0.2277397354    0.1137874134
 C    0.7478459555   -0.4285317476    1.3683085585
 C   -1.3072379787   -0.7008490877    0.1646866987
 C   -1.9868413273   -1.2215548197   -1.0951783663
 O   -1.1866703342   -1.5215640980   -2.2056560082
 C   -0.2098645212   -2.4710941771   -1.7996702513
 O   -0.6015851279   -3.0050654561   -0.5418860915
 C   -1.6076178386   -2.1831078249   -0.0167875850
 H    1.1836431806    1.4158169562   -0.4951346229
 H   -0.3451093066    1.1955697811   -1.3685249179
 H   -0.3493991048    1.8771192583    0.2802656577
 H    0.3273146259    0.1608863530    2.2047987968
 H    0.7128133910   -1.4867706269    1.6394083170
 H    1.7962253962   -0.1374812766    1.2469194173
 H   -1.9966727576   -0.1961827227    0.8571219168
 H   -2.9945396031   -0.9323707794   -1.3667564251
 H   -0.1669724651   -3.2824753118   -2.5382222963
 H    0.7621557971   -1.9760391877   -1.7000747170
 H   -2.2913539359   -2.7153607302    0.6328662522