19

 C    0.1478629173    1.4549782735   -0.2589943505
 C   -0.0958901307   -0.0249799359    0.0656447519
 C    0.6240118099   -0.4930220587    1.2899476658
 C    2.0593308503   -0.7367837008    1.6522607819
 O    2.0538450076    0.0528339469    2.8400665960
 C    0.6040891174   -0.1031295258    2.8255358263
 C    0.3786230645   -1.5935555901    3.1913425576
 C    1.0124700876   -1.8635875892    1.8255073469
 O    1.0243567459   -3.0280581314    1.0885025571
 H    1.2124774277    1.6509588224   -0.4197835488
 H   -0.3939365090    1.7518115917   -1.1622094004
 H   -0.1875092083    2.0994403909    0.5600919889
 H   -1.1728909639   -0.2061090804    0.1819079545
 H    0.2228515452   -0.6517165192   -0.7764423715
 H    2.9616827371   -0.8184501521    1.0587514939
 H    0.0691854238    0.7115048282    3.3090777907
 H    0.8700752091   -1.9507294693    4.1023660870
 H   -0.6827064418   -1.8557445150    3.1909092728
 H    1.7694273300   -3.5669169059    1.3779397101