24

 C    0.0687395296    1.5566722608   -0.2435079252
 C   -0.0170016821    0.0501577483    0.0199514961
 C   -1.4493665081   -0.5158734156    0.0361096503
 C   -2.1016274194   -0.4839898430   -1.3539471713
 C   -1.4630275336   -1.9412015075    0.6300140987
 O   -0.8460226678   -1.9843706399    1.9202586328
 C   -2.8562273298   -2.5406128500    0.6943128754
 C   -3.2533339580   -3.6556681913   -0.2036515131
 N   -3.0218151578   -3.8996623830    1.2266414095
 H    1.1066913406    1.9007003895   -0.1952797108
 H   -0.3190410272    1.8298337418   -1.2299710814
 H   -0.5008367079    2.1213720177    0.5037429805
 H    0.5667710900   -0.4896353186   -0.7390533548
 H    0.4484987010   -0.1779162987    0.9831300947
 H   -2.0531064061    0.1118133085    0.7127714741
 H   -3.1357123332   -0.8373726313   -1.3295278873
 H   -2.1095630283    0.5299567199   -1.7627785321
 H   -1.5491045691   -1.1192194375   -2.0568411975
 H   -0.8264416314   -2.5891072542    0.0113309991
 H   -1.4324193356   -1.5372151868    2.5412854931
 H   -3.6314049187   -1.8496679742    1.0292590978
 H   -4.2858899063   -3.7571956824   -0.5263955450
 H   -2.5196005482   -4.0099349212   -0.9237070492
 H   -2.1017551027   -4.3086966314    1.3770293255