24

 C   -0.7927681794    0.6195450475    1.9135882628
 C   -0.5413939867   -0.7227821754    1.2177205086
 C    0.2957180948   -0.6883124470   -0.0600184853
 C    0.2276698393    0.4729227271   -1.0218201095
 C    1.4553472856    0.2800539809   -0.1630181305
 N    0.5855646838   -1.9508605319   -0.7267097212
 C    0.1556302683   -3.2466385275   -0.2255998217
 C   -0.3937670879   -2.7085355145   -1.5059715584
 C   -1.8495016658   -2.3178836935   -1.6446173963
 H    0.1360056605    1.0944154106    2.2417918899
 H   -1.3233813917    1.3240522517    1.2658629883
 H   -1.4111097894    0.4661067636    2.8033850706
 H   -0.0419791360   -1.3955867235    1.9273295905
 H   -1.5148147084   -1.1804046097    1.0055173819
 H    0.3102672943    0.2378464261   -2.0767575759
 H   -0.4315028427    1.3039892250   -0.7985031508
 H    1.6324602448    0.9875276804    0.6385142243
 H    2.3470683454   -0.1039215211   -0.6428734506
 H    0.9123338057   -4.0290443866   -0.2162786810
 H   -0.5346308327   -3.2883419675    0.6145439643
 H    0.0331530777   -3.0929616427   -2.4328814777
 H   -2.3155837213   -2.0827500197   -0.6856045769
 H   -1.9640458661   -1.4457966674   -2.2972020809
 H   -2.4124082322   -3.1427730749   -2.0951262246