20

 O    0.0295726675    1.4223570885   -0.0892005189
 C    0.0521315728    0.0075848929    0.0204621841
 C   -1.3899939270   -0.5055037937    0.0143818168
 C   -1.4212599380   -2.0344125140   -0.0365399132
 C   -2.7961418802   -2.5908064480   -0.3787931129
 O   -3.7916834376   -2.4815470748    0.6396950144
 C   -4.1863581845   -1.2690176225    1.1250738235
 N   -3.5789045024   -0.1900561397    1.3486557387
 C   -2.1528159547    0.0524278082    1.2277937470
 H    0.9286509622    1.7491544449    0.0053796350
 H    0.6017790628   -0.4438685201   -0.8213490168
 H    0.5547640187   -0.3134575240    0.9484343522
 H   -1.8634765238   -0.1149070250   -0.8976498229
 H   -0.7307355561   -2.3962209883   -0.8102399782
 H   -1.0813395257   -2.4603960067    0.9168238340
 H   -3.1726264210   -2.1037737698   -1.2896555225
 H   -2.7339018496   -3.6648764788   -0.5727027000
 H   -5.2419645930   -1.3402203310    1.3935668525
 H   -1.6772971102   -0.3420640039    2.1407704497
 H   -2.0034929302    1.1342641959    1.2507394674