16

 C   -0.0194702415    1.4574895483   -0.0386180185
 N    1.2150546835    0.6454245715    0.0794149853
 C   -0.0793053812   -0.0126076571    0.0046509168
 C   -0.5491741796   -0.9481619276    1.1115676966
 O    0.2615987702   -2.1331432913    0.8309506385
 C   -0.5595353860   -2.2914302582   -0.3226695730
 C   -1.7717256558   -1.6090953184    0.3129136887
 O   -2.0588165166   -0.8178379776   -0.8437854725
 C   -0.6244231076   -0.8956413716   -1.1134545868
 H   -0.2604432531    2.0428901209    0.8444333250
 H   -0.2437007592    1.9487359927   -0.9821185901
 H    1.6950210071    0.5972715826   -0.8165412427
 H   -0.5484627598   -0.6384826402    2.1534064036
 H   -0.4979954742   -3.2455690644   -0.8416721408
 H   -2.6238307848   -2.0535724282    0.8227106358
 H   -0.3483560513   -0.7295255413   -2.1534972560