17

 C   -0.0656152568    1.5129715981   -0.3383838462
 C    0.0005348203    0.0250196094   -0.1015644713
 C    1.2682113445   -0.7330827560   -0.2782730603
 N    0.7307546766   -0.5300413022    1.0673413409
 C    1.3797439526    0.3027924722    1.9618714328
 C    1.0769999436    0.6988059949    3.2256060394
 N    2.0829439046    1.5306925580    3.7043066993
 C    2.9344943340    1.5908906835    2.7373678329
 O    2.5884072753    0.8793876322    1.6325642671
 H    0.9087712483    1.9874398320   -0.1973258488
 H   -0.3994119056    1.7141995974   -1.3614683947
 H   -0.7775135988    1.9864173571    0.3459634446
 H   -0.9305881417   -0.5088855787   -0.2791414304
 H    1.2549220543   -1.7636248727   -0.6224410685
 H    2.1524456696   -0.1670780059   -0.5566952725
 H    0.2158495004    0.4365511014    3.8173894912
 H    3.8785924386    2.1110972595    2.7002864344