17

 C    0.0005145042    1.6101347517   -0.0300910155
 C   -0.0093996725    0.0808532266    0.0153850331
 C    0.6895103084   -0.5346200368   -1.2028927179
 C    0.7041279942   -2.0280240783   -1.2004390382
 N    0.1903547087   -2.7683839575   -0.2739791209
 O    0.4336588593   -4.1076801637   -0.6790272154
 C    1.1049516081   -4.1285766651   -1.8721349406
 O    1.4522665917   -5.1077233297   -2.4668091768
 N    1.2716538562   -2.7879761783   -2.1919615595
 H    1.0231071197    2.0035019800   -0.0465593724
 H   -0.5147842349    1.9875199204   -0.9204604161
 H   -0.5018276958    2.0290217784    0.8462567083
 H    0.4818394507   -0.2748880201    0.9265472635
 H   -1.0378755474   -0.2907555134    0.0627255055
 H    0.2044377510   -0.1960229532   -2.1290464898
 H    1.7278333174   -0.1796907723   -1.2631805883
 H    1.7376993610   -2.4710579988   -3.0242487891