19

 O   -0.0630086872    1.3911587047    0.0074013396
 C    0.0135465498    0.0046587602    0.0000562990
 C   -1.2702276940   -0.8720911601    0.0705919957
 C   -0.8638880483   -1.5459215801   -1.2669990523
 C    0.5162669063   -0.7812114576   -1.2632056464
 C    1.6983170168   -1.5668091005   -0.7685319694
 C    1.7736934999   -1.5697207620    0.5674086568
 C    0.6549911205   -0.7865486636    1.1953171735
 C   -0.7161733994   -1.5515712736    1.3510706699
 H    0.8336425508    1.7433223759   -0.0417093973
 H   -2.2708845432   -0.4441029031    0.1279710615
 H   -0.8012623612   -2.6371199423   -1.2675384292
 H   -1.5031113037   -1.2291802781   -2.0950964748
 H    0.6980452225   -0.1947957206   -2.1676942830
 H    2.3758906351   -2.0954891341   -1.4308683098
 H    2.5213295029   -2.1011091899    1.1470327605
 H    0.9375370718   -0.2040140142    2.0761444785
 H   -1.2580940042   -1.2385163291    2.2471718319
 H   -0.6541802149   -2.6427492618    1.3399006752