21

 C    0.1992033436    1.4484070170    0.2096025080
 C   -0.0471258363   -0.0297070924   -0.1245634782
 C    0.6816241770   -0.4762665701   -1.3599748594
 C    0.4337983424   -0.0465861978   -2.8090004066
 C    1.3388954068   -1.2430871783   -3.2068474958
 C    2.7494700350   -0.8343070329   -2.6868649285
 C    2.1341138166   -0.9731312406   -1.2991470915
 O    2.7796575447   -0.9532049228   -0.0785769164
 C    1.0356708907   -1.8935932386   -1.7973147984
 H    1.2611705064    1.6291968340    0.4011233333
 H   -0.1099621921    2.0992543539   -0.6153973155
 H   -0.3628954808    1.7494397200    1.0991692154
 H    0.2722559855   -0.6509910625    0.7194084893
 H   -1.1232045404   -0.2052525232   -0.2556686379
 H   -0.6110539948   -0.2111012934   -3.0914180860
 H    0.7484858704    0.9529150684   -3.1335207929
 H    1.2326285348   -1.7392546498   -4.1685593217
 H    3.4903131213   -1.6192083681   -2.8749784705
 H    3.1489263428    0.1370090658   -3.0022948585
 H    3.3741415734   -1.7102540534   -0.0376352866
 H    0.6752005031   -2.8594687751   -1.4731803416