22

 C   -0.2247282138    1.3838935490   -0.1022866599
 C   -0.0871524775   -0.1373154479   -0.1528436566
 C    0.6437971667   -0.6162169909   -1.4036233939
 O    0.7941403648    0.0763788326   -2.3905194215
 N    1.2114501900   -1.8733972288   -1.2935722269
 C    0.6410987915   -3.1739106391   -0.9908768721
 C   -0.8493003900   -3.3979853714   -0.8726112562
 C    1.3320578837   -2.8916954076   -2.3098365055
 C    0.6050434388   -2.7871173893   -3.6309234420
 H    0.7555349720    1.8637743378   -0.0331515630
 H   -0.7058730165    1.7552711945   -1.0094589124
 H   -0.8184696627    1.6895815810    0.7639258413
 H    0.4294041641   -0.5256723390    0.7315689812
 H   -1.0806916321   -0.6060804903   -0.1497530011
 H    1.2206682107   -3.7368554000   -0.2581860807
 H   -1.4169048294   -2.8343512571   -1.6163042277
 H   -1.0761969308   -4.4613515877   -1.0042380089
 H   -1.2096778964   -3.1051796335    0.1189655492
 H    2.3454161260   -3.2837939246   -2.4027434866
 H   -0.4277607851   -2.4531214327   -3.5169486672
 H    1.1080156772   -2.0643501874   -4.2779434630
 H    0.6016850190   -3.7610380176   -4.1314823964