19

 C    0.1092201343    1.3061983018    0.1585253106
 O   -0.2299143056   -0.0468849263   -0.1298300057
 C    0.4677586340   -0.5742701340   -1.1921922370
 C    1.8879092488   -1.1097122808   -1.0879093756
 C    0.7827434370   -2.0324000253   -1.5339480032
 O    0.4734257405   -3.2434766591   -0.9479610890
 C    0.4320422074   -1.7812560636   -2.9974134929
 C    0.1157497394   -0.2798805572   -2.6560800869
 O   -1.2231822274    0.1154890209   -2.8406479230
 H    1.1755543780    1.4026176404    0.4025872709
 H   -0.1259772885    1.9631801057   -0.6880229151
 H   -0.4879170956    1.6052220645    1.0225476086
 H    2.6901972210   -0.7904471284   -1.7529734219
 H    2.1951084866   -1.2592621684   -0.0542489822
 H    0.9809978448   -3.3404659961   -0.1366016568
 H    1.2158422316   -1.9856538076   -3.7343832708
 H   -0.4915214544   -2.2865188433   -3.2884808421
 H    0.7411765098    0.4554987089   -3.1748076730
 H   -1.7188068615   -0.1794809121   -2.0674205151