16

 C    0.0794487962    1.5577720099   -0.0115822512
 C   -0.0864275277    0.0819408580    0.1271444930
 C   -1.3718305554   -0.7570239248    0.0090868666
 C   -0.7185362943   -1.8033400592    0.9979899690
 O   -1.2880479115   -1.8141281388    2.2848223500
 C   -0.5415668577   -3.1636504218    0.4730669444
 N   -0.4428566786   -4.2458155339    0.0794274847
 C    0.5419054042   -0.9112241206    1.0161694595
 O    0.9741216992   -0.7781125745   -0.3317268827
 H    1.0950214874    1.8532663485    0.2637315984
 H   -0.0994096142    1.8713826983   -1.0459058623
 H   -0.6297556137    2.0886837262    0.6308578074
 H   -2.2419172740   -0.3041045920    0.4893165865
 H   -1.6169199894   -1.1019505242   -0.9970875859
 H   -2.1166306583   -2.3060932619    2.2536309138
 H    1.2676506878   -0.8391532894    1.8177658388