18

 C   -0.1638628508    1.5839661843    0.0277500744
 C    0.0357366004    0.0609554352    0.0031228970
 C    0.8399786830   -0.4462149737   -1.1802855985
 C    1.8250907345   -1.2716859921   -0.8277932153
 C    1.9101281558   -1.4136729267    0.6625901618
 C    2.2427801792   -0.1176788171    1.4033428303
 C    0.8055943900   -0.4966780373    1.2061476290
 C    2.2408821063   -2.6756569454    1.2573327971
 N    2.5153323188   -3.6951428795    1.7314292887
 H    0.7943435956    2.1105274011    0.0697117575
 H   -0.6935352915    1.9201731922   -0.8692355439
 H   -0.7550629510    1.8851723604    0.8979151968
 H   -0.9609923787   -0.4032316521   -0.0205441808
 H    0.6232829096   -0.1366464036   -2.1967437574
 H    2.5187304579   -1.7714166119   -1.4922889268
 H    2.6402664619   -0.2154106589    2.4073806564
 H    2.6837744098    0.6716125912    0.8051013012
 H    0.2495718092   -0.8017546660    2.0841186426