20

 C   -0.2152812066    1.6978122813    0.2715354309
 C   -0.1286989441    0.1938249305    0.1313532180
 C    1.0670499060   -0.5008070774   -0.5061652943
 N    2.1944456417    0.2666421208   -0.9419753157
 C    3.4681632369   -0.2104807952   -0.8544516217
 O    3.7874118974   -1.2407892650   -0.3010405207
 C    0.7709557901   -0.6684487091    0.9736088758
 C    1.6848772387   -0.1029726680    2.0344019773
 O    0.1865543537   -1.8971073177    1.3197147114
 H    0.7594857998    2.1546145897    0.4595819237
 H   -0.6265371635    2.1509216159   -0.6377520100
 H   -0.8746670555    1.9719696225    1.1013688155
 H   -1.0722142034   -0.2879963797   -0.1082905935
 H    0.8477424889   -1.3784315193   -1.1102880356
 H    2.0381943418    1.0756394560   -1.5246560164
 H    4.1970182648    0.4667751215   -1.3438143945
 H    2.1159374728    0.8560646977    1.7411723364
 H    1.1328936888    0.0333042874    2.9695252374
 H    2.5162767659   -0.7918425510    2.2144409647
 H    0.8979049058   -2.5477352709    1.3659734914