18

 C   -0.2314619015   -1.2984458684   -0.1128312738
 C   -0.1194518360   -0.1033709661   -0.0578829842
 C    0.0038723898    1.3566854212   -0.0030597967
 C   -0.6730115335    1.9552826075    1.2378755598
 C   -0.1165342033    1.4341771917    2.5610850926
 C    1.3079602901    1.9137518120    2.8569652761
 N    2.3827419789    1.4773733586    1.9826817372
 C    2.3520063036    1.4549016903    0.7268223698
 O    1.3731662727    1.7554321696   -0.1870041526
 H   -0.3242319005   -2.3553739231   -0.1662095570
 H   -0.4852809488    1.7732719754   -0.8903310741
 H   -0.5689900277    3.0457569086    1.1804477940
 H   -1.7421029016    1.7274926466    1.1601950412
 H   -0.7609648959    1.7722819457    3.3810806076
 H   -0.1455415848    0.3386578614    2.5671505685
 H    1.3187642386    3.0148112578    2.8660878345
 H    1.5771906325    1.6024682956    3.8721052397
 H    3.2657557974    1.2175104057    0.1806626473