17

 O    0.2472040305    1.4737341989   -0.2299063718
 C    0.0655255487    0.1136079014   -0.0293663585
 C    0.1948672626   -0.5764553262    1.3733269588
 C   -0.9657785170    0.0102087541    2.1851766418
 O   -1.5227552621    1.2520948430    1.6980516382
 C   -2.0517565816    0.0071785894    1.1920067008
 C   -1.3429078279   -0.5818807864   -0.0356309011
 C   -0.6073999664   -1.7645275977    0.6886806133
 O    0.0932662216   -2.5905571690   -0.2025915399
 H   -0.3353990093    1.9146909505    0.4032131173
 H    0.7121345110   -0.4038396899   -0.7358579019
 H    1.1547923899   -0.7270345291    1.8668238530
 H   -1.0933118594   -0.1698956564    3.2466038040
 H   -3.0974695519   -0.1769324255    1.4105480014
 H   -1.9148277954   -0.7406250756   -0.9481203742
 H   -1.2314231808   -2.3519617487    1.3747964752
 H    0.6205819174   -3.2117076527    0.3095486436