15

 O   -0.2930562049    1.0217197781    1.6216857798
 C    0.2053165265    1.5543367252    0.6793496068
 O    0.2158502608    2.8983403029    0.5276112169
 C    0.9254252390    3.4287614504   -0.6054316128
 C    2.3350705381    3.7689432920   -0.2471003588
 C    3.5106783339    3.7224582011   -0.9703227759
 C    4.4907211135    4.2274874952   -0.0887329460
 N    3.9747268253    4.5546414481    1.0921890423
 N    2.6639555445    4.2796243922    0.9673501922
 H    0.6895864034    1.0243692029   -0.1633616664
 H    0.9099403521    2.7212097449   -1.4422438048
 H    0.3544621677    4.3130111626   -0.9047850831
 H    3.6371015810    3.3770408167   -1.9838326641
 H    5.5482277076    4.3572613062   -0.2650984114
 H    2.0527406415    4.3945646515    1.7594040553