18

 N    0.0869624449   -1.1243583152    0.0447308105
 C    0.0257264835    0.0308781235    0.0195282321
 C   -0.0441197366    1.4666303094   -0.0075624441
 C    0.4276545836    2.2058414652    1.2415585384
 C    1.2809566059    2.2238914000   -0.0003590028
 C    1.2900144775    3.7354818753   -0.3058751138
 C    1.5659040966    4.2886930167    1.1396759370
 C    0.1252349437    3.7108405299    1.3893482378
 C   -0.1725077856    4.1931480499   -0.0561684575
 H   -0.8847340493    1.8391093823   -0.5797090692
 H    0.6799460634    1.6211627895    2.1173242240
 H    2.1967771933    1.6532364609   -0.0903264345
 H    1.8555387599    4.0663032296   -1.1761109279
 H    2.3930664800    3.8470626420    1.7015960664
 H    1.6078802753    5.3797636491    1.1843757488
 H   -0.4886426457    4.0167118209    2.2356150438
 H   -0.2562017930    5.2804444370   -0.0978676634
 H   -0.9936136174    3.7568867138   -0.6266943657