14

 O   -0.0273596649   -0.0335680660    0.0534029052
 C    0.0004408346    1.1591921139    0.0305498863
 O   -1.1332016718    1.9386256024   -0.0082374682
 C   -0.7093110998    3.3011479454   -0.0690515492
 C    0.0350471006    3.6644013707   -1.3552005413
 C    1.2110534131    4.1735755607   -0.6098274867
 C    0.6688902185    3.4323696770    0.6492411388
 C    1.1792707136    2.1219900779    0.0312244859
 N    1.3047673409    2.8588916436   -1.3078945658
 H   -1.5211534213    3.9549761624    0.2406122547
 H   -0.3548896515    3.9153833279   -2.3318530034
 H    1.8876245389    4.9988875254   -0.7761433268
 H    0.7491231896    3.6918630926    1.7014527093
 H    2.1303242998    1.6905172460    0.3307228014