19

 C    0.1569122958    1.5308473271    0.1442064268
 C    0.0236151981    0.0201159399   -0.0539759064
 C    0.6522823925   -0.4884884967   -1.3701702103
 O    2.0508119888   -0.1428495993   -1.3794729503
 C    2.8519132881   -1.2947765556   -1.6295166645
 C    1.8931425820   -2.4504990555   -1.6126297371
 C    0.6532330612   -2.0033232349   -1.4726462106
 C   -0.0221581050    0.1051593358   -2.5390472255
 C   -0.5896378314    0.5695293065   -3.4918670242
 H    1.2089476099    1.8265835581    0.1322460553
 H   -0.3590838436    2.0785034551   -0.6498149576
 H   -0.2757129673    1.8324924375    1.1026983702
 H    0.5206545070   -0.5169570478    0.7615289276
 H   -1.0321344650   -0.2759945942   -0.0435191610
 H    3.3683598904   -1.2019163567   -2.5984631646
 H    3.6267649788   -1.3693577320   -0.8529099227
 H    2.2040806443   -3.4821457535   -1.7180907944
 H   -0.2621488310   -2.5789750142   -1.4475435347
 H   -1.0799670636    0.9848046803   -4.3375748262