17

 O    0.5823013285    0.1771163686    0.8603546703
 C   -0.0969277931    0.1519646113   -0.3826038728
 C   -1.5288755671   -0.4425039417   -0.3139401502
 O   -2.1718072521   -0.2003059234   -1.5330964895
 C   -1.5003423117   -1.9461872758   -0.0305985224
 O   -1.8531420385   -2.7113475024   -0.9057122882
 C   -1.0357865230   -2.4261341747    1.3263753321
 C   -0.8026207783   -3.9242414497    1.3828369824
 O   -1.1820410142   -4.6238631143    2.2841026763
 H    0.1950871777    0.8707153441    1.4043035457
 H   -0.1927573849    1.1519202819   -0.8231406682
 H    0.5135859692   -0.4500234332   -1.0631081723
 H   -2.0666786907    0.0564226920    0.5101994891
 H   -2.3315330451   -1.0783584255   -1.9176177078
 H   -0.1107062220   -1.8890798310    1.5812582994
 H   -1.7727888242   -2.1449572254    2.0880432694
 H   -0.2245578006   -4.3364794407    0.5298929168