21

 C   -0.4038283832    1.5108337096   -0.1845888639
 C   -0.0607766976    0.0581310841    0.0585474245
 N    1.2359448637   -0.5872557241   -0.2512558543
 C    2.4443047175    0.2668690903   -0.3320049480
 C    2.8311747240    0.6830951850    1.0875548385
 N    1.9176783041    1.6641955712    1.7043546062
 C    1.7430483772    0.2218290553    1.9872581842
 C    0.7455997122   -0.5614520829    1.1567994570
 C    0.3180841899   -1.8804446540    1.7645564116
 H    0.3605734303    2.1982387354    0.1654034700
 H   -0.5779061624    1.6657238966   -1.2565473792
 H   -1.3390094813    1.7518274503    0.3334371522
 H   -0.8693809385   -0.5899422383   -0.2879075595
 H    3.2472393733   -0.3369221974   -0.7684597608
 H    2.2856152283    1.1299198438   -0.9877632360
 H    3.8761822126    0.6841285587    1.3829028975
 H    2.3799967040    2.1003275469    2.4991549755
 H    1.9411001166   -0.1337058994    2.9931098061
 H   -0.3363166656   -1.7213889566    2.6296145886
 H   -0.2230779843   -2.4812958559    1.0299736452
 H    1.1855116991   -2.4614726184    2.0992004743