21

 C    0.0164306433    1.4569623938   -0.0618113849
 O   -0.0213393950    0.0525520615    0.0028265520
 C    0.6231287195   -0.5639360924   -1.0832508090
 C    0.5662493797   -2.0614415871   -0.9730350353
 C    0.0145196038   -2.6984197137    0.0580287869
 C   -0.0584840249   -4.1975303152    0.1338283369
 O    0.2993676868   -4.8493488125   -1.0709131616
 C    1.4492822512   -4.2829124528   -1.6709751885
 C    1.1861431285   -2.8405330497   -2.1095995276
 H    1.0496862239    1.8395169295   -0.0570410821
 H   -0.4849741835    1.8387934619   -0.9654690704
 H   -0.5053169121    1.8390528502    0.8188620016
 H    0.1617278328   -0.2468380548   -2.0386714121
 H    1.6798100864   -0.2377942083   -1.1401264004
 H   -0.4052700755   -2.1386082348    0.8869109969
 H    0.5720830941   -4.5591532224    0.9683747381
 H   -1.0835283467   -4.5185287250    0.3565810019
 H    2.3010697234   -4.3071929128   -0.9706856842
 H    1.6960301303   -4.9209310116   -2.5244007165
 H    0.5247463377   -2.8298253062   -2.9869041758
 H    2.1291444962   -2.3748274176   -2.4280647657