15

 C   -0.0180093560    1.4448400648    0.0361968094
 N   -0.0053023036   -0.0096556591    0.0908843672
 N   -0.0973622391   -0.7099111573   -1.0470357208
 N   -0.0728001234   -1.9840899752   -0.7474337572
 C    0.0398769749   -2.1058427084    0.5944931959
 C    0.0882742120   -0.8456740349    1.1624213759
 C    0.1941201756   -0.3565378810    2.5547906598
 N    0.4232444737   -1.3267357970    3.4885354322
 O    0.0606855563    0.8200185213    2.8478209690
 H    0.8935971054    1.8471483659    0.4796270102
 H   -0.0846888663    1.7129890077   -1.0177335852
 H   -0.8700980140    1.8343664770    0.5930773345
 H    0.0608573185   -3.0746742743    1.0689564573
 H    0.7453187337   -2.2432230723    3.2299676439
 H    0.5925452323   -1.0149907471    4.4313972379