16

 C   -0.0256388129    1.4891415060    0.0195998401
 C   -0.0252937747    0.0346999181    0.0508902024
 C   -0.0313221427   -1.1689644945    0.0803957412
 C   -0.0301766834   -2.6026785470    0.1044201985
 C   -0.5363610037   -3.4258048876    1.2519346464
 O   -1.6226135345   -2.7477403219    1.9202417422
 C   -2.3983026146   -2.8489700000    0.7589501078
 N   -3.5986862485   -2.5613415115    0.5578893060
 C   -1.3037099953   -3.4737785940   -0.0441822647
 H    0.8696730167    1.8738939329   -0.4809558769
 H   -0.8988023416    1.8738920438   -0.5186292101
 H   -0.0466073237    1.9079220983    1.0316909223
 H    0.8097915033   -3.0765143597   -0.4020272650
 H    0.0088070592   -4.1728178517    1.8126840213
 H   -4.0317024804   -2.1718876551    1.3968507281
 H   -1.4038374731   -4.2292631060   -0.8089076197