25

 C   -0.0819580648    0.8514513188   -2.0090965004
 C    0.0455777342   -0.2919834786   -1.0259592832
 C    1.3411468199   -0.6657578171   -0.3212932666
 C    1.6291204667   -2.1454604044   -0.1394259300
 C    2.5912029346    0.1712445511   -0.5237451219
 C    0.1932836356   -0.0732254660    0.4617660341
 C    0.1277721469    1.2810107946    1.1897221627
 C   -0.9775403305    0.6851001517    2.1099024441
 C   -0.6630565746   -0.7347297736    1.5545755271
 H    0.5044038168    1.7248020033   -1.7122360837
 H    0.2539445544    0.5545188052   -3.0091662874
 H   -1.1256633555    1.1754705165   -2.0955626579
 H   -0.5740248575   -1.1491801724   -1.2884745731
 H    2.1384829360   -2.5580997840   -1.0188768204
 H    2.2786057779   -2.3200685604    0.7275038661
 H    0.7116879553   -2.7216222672    0.0134109691
 H    2.3757568936    1.2395261155   -0.5996599412
 H    3.2831432182    0.0374384427    0.3167531411
 H    3.1243061911   -0.1267575932   -1.4347965404
 H    1.0489959710    1.5217036277    1.7307621809
 H   -0.1549594137    2.1547747082    0.5955728582
 H   -0.8481710093    0.8293421649    3.1848710617
 H   -1.9776482350    1.0283971507    1.8341374599
 H   -1.5185765941   -1.3288782715    1.2199286572
 H   -0.0760455772   -1.3425333027    2.2515039239