19

 C   -0.0698330968    1.5905896991    0.1180646685
 C    1.4717707022    1.3553863708    0.0126894322
 C    1.6780052127    0.5105529009    1.2929712096
 C    0.6662964466   -0.3688572837    1.2748716315
 C   -0.0417784029    0.0122060758   -0.0223208214
 O   -1.0665767573   -0.6964715734   -0.6330798569
 C   -0.8405755797   -0.6317624864   -2.0594803012
 C    0.4068836349    0.2737554862   -2.3296221220
 C    1.1509446582    0.1794272848   -0.9913095008
 H   -0.4441249143    2.0014768227    1.0568232098
 H   -0.5164321667    2.1073188953   -0.7344315096
 H    2.1798121267    2.1549823660   -0.1981090835
 H    2.4618707783    0.6449018357    2.0249225058
 H    0.3925053446   -1.1512610063    1.9670425920
 H   -0.6732139482   -1.6534574695   -2.4217502960
 H   -1.7436246436   -0.2438978387   -2.5425116903
 H    0.9928878220   -0.1080789156   -3.1688114330
 H    0.0969156275    1.2898747815   -2.5824486462
 H    1.8792996957   -0.6351349349   -0.9869707187