15

 C   -0.0600283596    1.4884223392   -0.2504869609
 C    1.3979420214    1.5839013478    0.2920883546
 C    1.3941845000    0.0520410383    0.5741683524
 O    1.2958480005   -0.3430341462    1.9305541458
 C   -0.0611632252   -0.1935410893    2.2874051514
 O   -0.8296708145   -0.4821480268    1.1396783815
 C   -0.0653844121   -0.0435279169    0.0310645220
 H   -0.8137445023    2.0366649570    0.3194105958
 H   -0.1730267522    1.7429457970   -1.3067631202
 H    2.1414869678    1.8945826142   -0.4453984269
 H    1.5292809716    2.1900558404    1.1914046430
 H    2.1844927874   -0.5371335745    0.1068328892
 H   -0.3069863588   -0.9116777850    3.0743905684
 H   -0.2597738788    0.8343192401    2.6403800133
 H   -0.2864074052   -0.6989569253   -0.8125460896