15

 O    0.9624746105   -0.9871161177    0.5916059113
 C    0.1787453900   -0.0124112430   -0.0723804607
 C   -1.2971447490   -0.3653710634   -0.0278706544
 N   -1.9851010363   -0.3193136732    1.3256889260
 C   -2.0705216402    1.0910908555    1.6987018072
 C   -3.0797669495    0.5657533203    0.7346251004
 C   -2.4369878207    0.4977268869   -0.6229882073
 O   -2.7694477444    0.7994379223   -1.7309491068
 H    0.6124612431   -1.0813596115    1.4845122477
 H    0.3627433958    0.9939358828    0.3327278318
 H    0.5060167520   -0.0023741222   -1.1169001744
 H   -1.4195743385   -1.3829349999   -0.4180717275
 H   -2.4142445923    1.2515002939    2.7158551096
 H   -1.3173922011    1.7977257926    1.3605616419
 H   -4.1309630695    0.4626904767    0.9767967651