15

 O    0.1520212343    1.4206705904    0.0824923970
 C    0.0261000920    0.0395665125    0.0194868716
 C    0.2063050337   -0.7598240961    1.3367219555
 O   -0.7559195847   -0.0996755550    2.2212343425
 C   -1.7713259062   -0.7379407060    1.4446284517
 C   -0.8837767440   -1.7698021253    0.8555806823
 C   -1.3747142666   -0.6135778986   -0.0481373860
 C   -2.3039904406   -0.6437016930   -1.1172942805
 C   -3.0905569622   -0.6621192502   -2.0287017201
 H   -0.2757033886    1.6847258899    0.9089709716
 H    0.6647170151   -0.3362642462   -0.7827166447
 H    1.1686403979   -0.9518719121    1.8035003422
 H   -2.7926817929   -0.7491486014    1.7988485777
 H   -0.9388646146   -2.8409222466    0.7329851457
 H   -3.7804055325   -0.6756784921   -2.8355751267