18

 C    0.3402418540    1.3966790034   -0.0743732504
 C   -0.0129738265   -0.0788251344   -0.0722600026
 C   -1.4580906509   -0.4022762983    0.2891389802
 C   -1.7670270272   -0.0640858611    1.7352483099
 O   -2.6728985380    0.6400117711    2.0976857236
 C    0.7300562653   -1.0002110605   -1.0036369915
 N    0.9700251177   -1.0451812250    0.4208071699
 C    2.1957238252   -0.7617995279    1.0019391173
 O    3.2651713149   -1.0819316996    0.5453188583
 H    1.3914158182    1.5534855574   -0.3310424704
 H   -0.2746311644    1.9276342928   -0.8080654316
 H    0.1524192116    1.8558930807    0.9019505493
 H   -2.1553160379    0.1382809486   -0.3573891674
 H   -1.6209817470   -1.4797873050    0.1624023393
 H   -1.0703628837   -0.5325754777    2.4670926103
 H    0.2211875518   -1.8600769173   -1.4311124461
 H    1.5210028281   -0.5778148406   -1.6180722283
 H    2.0796684190   -0.2649958464    1.9841015001