22

 C    0.0308744313    1.6231143190    0.0175457513
 C   -0.1251062443    0.1062061485   -0.1047791888
 C    0.7769258263   -0.4984905631   -1.1897597417
 O    2.1476638873   -0.1851838496   -0.9715388553
 C    0.6079574620   -2.0247732222   -1.3099214346
 C    1.2968054579   -2.5809306763   -2.5562827733
 O    1.1729007435   -2.5500882488   -0.1079107978
 C    0.8241279160   -3.8793819729    0.1996255888
 H    1.0735408163    1.8849261507    0.2142634052
 H   -0.2689933807    2.1281646774   -0.9079505652
 H   -0.5859499102    2.0211157565    0.8290300646
 H    0.1102793236   -0.3800226119    0.8492847080
 H   -1.1682943319   -0.1480600771   -0.3355683783
 H    0.5222785225   -0.0479047701   -2.1578357252
 H    2.4339298120   -0.7674299016   -0.2559793704
 H   -0.4675280639   -2.2651892543   -1.3373727646
 H    1.2475774216   -3.6725304530   -2.5960762106
 H    0.8107573217   -2.1953542029   -3.4583120131
 H    2.3445326400   -2.2706825590   -2.5685151810
 H    1.2226479537   -4.6004648313   -0.5277135512
 H    1.2511745857   -4.1056911347    1.1800192732
 H   -0.2679360402   -4.0078938433    0.2513227499