18

 C   -0.0244622521    1.5508144273   -0.0173536664
 C   -0.1395004578    0.0464068177    0.0202256573
 C   -0.4934187644   -0.6906880020   -1.2864692359
 N   -0.7306650162   -2.0932647908   -0.8821736161
 C   -0.8568185157   -2.0600508754    0.3808564332
 O   -0.2315208020   -2.9700390502    1.2031950279
 C    1.0131462580   -2.1946853163    1.3378205817
 C    0.6080492612   -0.6900340616    1.2111551287
 C   -0.8776384253   -0.7017201074    1.0737045164
 H    0.8219121361    1.8655390094   -0.6382822222
 H   -0.9300421183    2.0001823389   -0.4410006934
 H    0.1198367789    1.9733580911    0.9814435943
 H   -1.3591812622   -0.2140309218   -1.7683522626
 H    0.3185743136   -0.7075472901   -2.0230205460
 H    1.4167940324   -2.3974473494    2.3333053717
 H    1.7091902944   -2.5353012845    0.5656191953
 H    1.1061745797   -0.0065477372    1.8916593513
 H   -1.6335922702   -0.3752803376    1.7770444449