18

 N   -0.2110011920    1.2957850061    0.5306214922
 C   -0.0402335197    0.1119641142    0.1410010397
 O   -1.1031327377   -0.7520833754    0.2279489892
 C   -0.9212121779   -2.0501630932   -0.1972329062
 O    0.1223723365   -2.4710450894   -0.6202631604
 C   -2.2056211078   -2.8172092506   -0.0971185917
 C   -2.9930522033   -3.0046285859   -1.4418723659
 C   -3.2707451812   -4.4726699724   -1.0253649015
 C   -2.1131807323   -4.3624349966    0.0020276734
 H    0.6520544003    1.8244370667    0.4105231198
 H    0.8544301163   -0.3551102774   -0.2711278116
 H   -2.8436408442   -2.3734593714    0.6683318134
 H   -3.8427486307   -2.3405807541   -1.6088565861
 H   -2.3183151108   -2.9465552231   -2.2998402810
 H   -4.2431190662   -4.5768044026   -0.5363030726
 H   -3.1871402061   -5.2376043043   -1.7997612154
 H   -1.1623078243   -4.7074817306   -0.4101460838
 H   -2.2580854087   -4.8035111899    0.9902077785