16

 N    0.1465971396    1.1546387508    0.7387830976
 C    0.0358200426    0.0671359193    0.1305744133
 C   -1.1132734400   -0.8465132919   -0.2511899418
 C   -0.0045502968   -1.6874307967   -0.8652240871
 C    0.2481738878   -3.1439161751   -0.9068492548
 C    0.0783901475   -2.3486440360   -2.2161348781
 C   -1.1033574938   -2.4918752696   -3.0110595856
 C   -2.1099633190   -2.5971214073   -3.6615373233
 O    1.0052338911   -0.7476435568   -0.4439281968
 H    1.1210233569    1.4549312283    0.7949911226
 H   -1.6430311451   -1.2899054501    0.5936156676
 H   -1.8287433100   -0.4238691102   -0.9584306949
 H    1.2512856444   -3.4881038405   -0.6816844635
 H   -0.5534664524   -3.8144837731   -0.6185071132
 H    1.0005899985   -2.1601177378   -2.7586467301
 H   -2.9916569014   -2.6968924533   -4.2448594518