14

 N   -0.0652969106    1.0707969266   -0.0765649357
 C   -0.1856473010   -0.2725547676   -0.2762178282
 O    0.7154656812   -0.9826125769   -0.6734703832
 C   -1.5167553269   -0.7962688109    0.0161796195
 C   -2.5913343346   -1.2943519061    0.2378738747
 C   -3.8883349441   -1.9084553958    0.4897924418
 O   -3.7919174467   -3.2998812129    0.8278195269
 C   -3.6672862418   -4.1674127394   -0.2044458155
 O   -3.5701529268   -5.3427718467   -0.0375693869
 H    0.8420951265    1.4889310150   -0.2041209442
 H   -0.8039702071    1.6106831244    0.3393570354
 H   -4.3807317083   -1.4396552484    1.3458111687
 H   -4.5423308597   -1.7721304326   -0.3819597214
 H   -3.6779384000   -3.6683919188   -1.1923609520