21

 C   -0.2309915632    1.6102944498    0.1065668259
 C   -0.0831596890    0.0857788586    0.0361667730
 C    0.7793430742   -0.5126592419    1.1489263172
 O    2.1088244767   -0.0430937913    1.1188551187
 C    0.0940099451   -0.5736744954    2.5456854785
 O   -0.1074585140   -1.9996315775    2.4173537841
 C    0.7166475215   -2.0367822523    1.2519309183
 C    0.5908697753   -3.0964130669    0.2121282754
 C    1.8338735692   -3.0097463522    1.0907872659
 H    0.7261336951    2.1267941927   -0.0353651330
 H   -0.8985018997    1.9711876000   -0.6809457918
 H   -0.6478393299    1.9329895675    1.0669001020
 H   -1.0723629303   -0.3825873392    0.0850556597
 H    0.3534633204   -0.1993982547   -0.9285877875
 H    2.0940129737    0.9124371759    1.0031674348
 H    0.7799579383   -0.3261771587    3.3644226940
 H   -0.8547283349   -0.0404693609    2.6719194079
 H   -0.1107907008   -3.8985034468    0.4155217942
 H    0.6706211323   -2.8179793558   -0.8339187296
 H    2.7572615993   -2.6476149745    0.6525998484
 H    1.9492415105   -3.7582871865    1.8671541042