23

 C   -0.0399001216    1.8069697348   -0.0889421564
 C    0.0195416779    0.2728061285   -0.0541650767
 C   -1.3708971039   -0.3874782858    0.0191734152
 C   -2.1490400829   -0.0935724211    1.3055208983
 C   -3.4620045453   -0.8621567366    1.3817319571
 O   -4.1102984909   -0.5032598102    2.5933420797
 C    0.7649721253   -0.2413715032   -1.2684800615
 C    2.1982748760   -0.5554473807   -1.2444653525
 O    1.2183133418   -1.5965680061   -1.2227293279
 H    0.9638385882    2.2382338133   -0.1605006896
 H   -0.6162176220    2.1579245179   -0.9532838150
 H   -0.5121677700    2.2107159305    0.8101353784
 H    0.5901512026   -0.0403594701    0.8307012970
 H   -1.9633935535   -0.0704313344   -0.8514648829
 H   -1.2316250992   -1.4711196507   -0.0802780726
 H   -1.5427888189   -0.3569495402    2.1813486932
 H   -2.3775140441    0.9744545171    1.3926275793
 H   -4.0878314698   -0.6164583022    0.5075560891
 H   -3.2613564839   -1.9453432421    1.3419916552
 H   -4.9339166416   -0.9960032444    2.6506581463
 H    0.3279001201    0.0411217781   -2.2301322066
 H    2.7896190299   -0.4881674225   -2.1567718701
 H    2.7587484059   -0.4244683699   -0.3192171170