14

 C   -0.8518309872    0.5486631343    0.4744577427
 C    0.4738718426   -0.1187851295    0.2216596250
 N    1.5815618546    0.1240751095    0.8032491463
 N    0.5311865075   -1.1250249469   -0.7567710635
 C   -0.4654363232   -1.6293099759   -1.5632096381
 O   -1.6247307661   -1.2678651285   -1.5629447433
 C    0.0232380290   -2.6766189660   -2.4500410299
 C    0.3949154692   -3.5440232425   -3.1947086423
 H   -1.2337593562    1.0200047802   -0.4339652868
 H   -1.6070136275   -0.1801171714    0.7775064876
 H   -0.7303565763    1.3005946870    1.2567599910
 H    1.4653957453    0.8605091727    1.4967913400
 H    1.4567740779   -1.5189476691   -0.8617644631
 H    0.7111210405   -4.3122167742   -3.8581425556