18

 O   -0.1451204552    1.3731607069    0.0788521593
 C   -0.0198365760   -0.0062590009    0.0026078888
 C    0.3534982021   -0.8201940836   -1.2900820040
 C   -0.3401731318   -1.9405122351   -0.4734311722
 O    0.5434031909   -2.1276018768    0.6535255629
 C    0.8086951059   -0.7680034652    1.0577135052
 C   -1.2995264867   -0.8553176791    0.0267188463
 C   -2.4926237661   -0.8056249293    0.8763822916
 N   -2.5617806061   -0.4884566375   -0.5806798680
 H    0.7225134086    1.7776880552   -0.0268140061
 H   -0.2255883282   -0.5016435037   -2.1573416810
 H    1.4099742368   -0.9634136656   -1.5293867461
 H   -0.6514191986   -2.8981080023   -0.8811990549
 H    1.8856159246   -0.5583835709    1.0066038195
 H    0.4535083950   -0.5888337102    2.0790697927
 H   -3.0035205396   -1.7194100400    1.1657592928
 H   -2.5836951020    0.0153570739    1.5834845409
 H   -2.5928178136    0.5233994241   -0.7014972580