19

 C   -0.0221653773    1.5481892109   -0.0433289767
 C    0.0396430723    0.0419817795    0.0800021186
 C    1.2838610127   -0.7619932049   -0.1286262569
 O    2.4448438146   -0.0474190743    0.3207657757
 C    1.9609324959   -0.0907273326    1.6817059479
 C    2.8639665017   -0.7807432032    2.7209504949
 O    2.8375509908    0.3862905881    3.5679470177
 C    2.1219900158    1.1510556262    2.5756258774
 C    0.6498917798   -0.7267460761    1.2454269637
 H    0.9509706393    1.9978137756    0.1666750705
 H   -0.3035967800    1.8357164932   -1.0618728824
 H   -0.7608429886    1.9771937663    0.6414266683
 H   -0.8406006355   -0.4801351108   -0.2930221262
 H    1.4328333361   -1.5538332765   -0.8532321992
 H    2.4547048862   -1.6666014123    3.2216521212
 H    3.8673059641   -1.0018387871    2.3357521710
 H    2.7450580085    1.9329795598    2.1221808984
 H    1.2040304476    1.5956957050    2.9759006705
 H    0.1167141458   -1.4877183968    1.8000047557