16

 O   -0.5236477629    0.4602374053    0.2771911752
 C    0.0492576054    1.3150106203   -0.3552741953
 C    1.3393261058    1.9820840629   -0.0104455018
 C    1.5473774600    2.8029223170    1.2477792328
 N    2.3029068116    1.5793562756    1.0164693838
 C    1.8519084711    0.5588638490    2.0158057160
 C    0.7020257805    1.1500347492    2.8500631236
 C    0.5928671055    2.6099830543    2.4039841404
 O   -0.0631306121    3.4805737656    2.9122079193
 H   -0.3601729803    1.6732210799   -1.3255712719
 H    1.8217115343    2.3962170471   -0.8950098091
 H    2.0400895005    3.7659649923    1.1536897980
 H    1.5736692346   -0.3601702532    1.5011368168
 H    2.7282716356    0.3530524485    2.6356346686
 H   -0.2534525232    0.6545170911    2.6672646841
 H    0.8968880937    1.1248180052    3.9256497495