21

 C   -0.1409572311    1.5175867761   -0.0012686838
 C   -0.0166874892    0.0193734044   -0.0212011389
 C   -0.0251722654   -0.6895096311   -1.1547212374
 C    0.0729481238   -2.1690876232   -1.1795058070
 C    1.4249339291   -2.8574303508   -1.1864192203
 C    0.5851521872   -2.8442847676    0.0693485568
 C    0.9701203501   -1.9418801164    1.2365594114
 C    0.0892575494   -0.6902713263    1.3272501566
 O    0.6742191462    0.1291456723    2.3384411522
 H    0.7303366212    1.9824447386    0.4728183788
 H   -0.2411773813    1.9193141234   -1.0127521698
 H   -1.0225405748    1.8409946459    0.5713839140
 H   -0.1191971203   -0.1765726557   -2.1107791335
 H   -0.7113189037   -2.6773948323   -1.7355241598
 H    1.5214730739   -3.7881024347   -1.7358099131
 H    2.3081392640   -2.2271056939   -1.2032173459
 H    0.1131304626   -3.7834549778    0.3392352543
 H    0.9129314398   -2.4868145241    2.1836512458
 H    2.0039037324   -1.5932081392    1.1396682100
 H   -0.9264606176   -0.9888666757    1.6415027587
 H    0.0522266038    0.8281461983    2.5597855410