15

 C    0.0403631087    1.4425771020   -0.4047813073
 C    0.0137527387    0.0571416258    0.2448795404
 O    0.4241509005    0.1888814225    1.5902499089
 C   -1.3425359260   -0.5937310308    0.1370937649
 N   -1.9297972458   -1.0269530322    1.2258402514
 O   -3.1297260765   -1.5994371597    0.8232780580
 C   -3.2258141351   -1.4883042561   -0.5092895051
 C   -2.1341980546   -0.8660157423   -1.0182361433
 H    1.0350193164    1.8776276766   -0.2791172870
 H   -0.1807037763    1.3843836366   -1.4748772074
 H   -0.6899575578    2.0992972899    0.0754848725
 H    0.7231682063   -0.5913196809   -0.2995429164
 H   -0.1078563989   -0.4139459495    2.1241188459
 H   -4.1235866384   -1.8942251937   -0.9495177841
 H   -1.9214152712   -0.6351991882   -2.0483680214