19

 C   -0.1539934983    1.5119557863    0.0883772704
 C    0.1291231895    0.0080210249   -0.0339896114
 C    0.7391005920   -0.5636117892    1.2038651311
 C    0.0994808306   -1.0278221932    2.4637073008
 C    1.0397969802   -1.9701781854    1.6825563972
 C    0.6723035185   -3.3438243892    1.2063282389
 C    2.4339267899   -1.4329949358    1.8856051608
 O    3.5106320725   -1.8536422346    2.1618493619
 O    2.1004933751   -0.1296755110    1.5404160280
 H    0.7680878362    2.0622261728    0.2950903464
 H   -0.5830605483    1.9008011092   -0.8392987839
 H   -0.8579379914    1.7153136582    0.9013071246
 H   -0.7995327894   -0.5371129640   -0.2402687670
 H    0.8035394859   -0.1787399009   -0.8778470275
 H    0.4022235258   -0.6048992478    3.4164424064
 H   -0.9467941673   -1.3148670125    2.3964919332
 H   -0.3784399791   -3.3852895839    0.9034333813
 H    1.2857085771   -3.6459154765    0.3520483827
 H    0.8186737806   -4.0828278974    2.0008423660