19

 C   -0.1975110305    1.6022995867   -0.0140067504
 C   -0.0607254521    0.0864766616   -0.0100149757
 C    1.1884900738   -0.5604473608   -0.6561202327
 C    2.0724403326   -0.3111494090    0.6054667685
 O    2.5253747513   -1.6920405360    0.7231520505
 C    1.1309567062   -1.7887684948    0.3004524540
 C    0.6391925500   -0.6000822288    1.1906421469
 C    0.2541081122   -0.6580224987    2.6412405927
 O    0.1650747426    0.6328575597    3.2349696619
 H    0.7499390203    2.0930209949    0.2349325008
 H   -0.5099416400    1.9670105689   -0.9985945573
 H   -0.9392875935    1.9289544532    0.7205668499
 H   -1.0052893913   -0.3912541896   -0.2981362698
 H    1.5243703438   -0.5596283836   -1.6933987373
 H    2.7852656402    0.4845526976    0.8221065492
 H    0.6933200287   -2.7759057169    0.1510123497
 H   -0.7418252221   -1.1016522949    2.7504328766
 H    0.9657337132   -1.3059144937    3.1761015406
 H    1.0468075645    1.0188113242    3.2232970415