14

 O   -0.8102164162    0.4279828521   -1.9433553396
 C   -0.1164017818   -0.2315667608   -0.9023730172
 C   -0.9390899723   -0.2205573521    0.3647487097
 O   -1.9857498781   -1.1854006219    0.4825654726
 C   -0.9219792209   -1.2640943941    1.4225831341
 C   -0.0405375979   -2.4732669453    1.3850632925
 O    0.7392897553   -2.7379085736    2.2647508529
 C   -0.1983060543   -3.3754656135    0.2246903856
 N   -0.2882553012   -4.1150934065   -0.6594445002
 H   -1.5759705748   -0.1111896094   -2.1706490969
 H    0.1622818466   -1.2548162539   -1.1817258102
 H    0.8042635090    0.3377283308   -0.7348669364
 H   -1.2291350923    0.7777565428    0.6962246512
 H   -1.1476460813   -0.9544076544    2.4421513919