15

 C   -0.0019924422    1.5527216720   -0.0771993480
 C    1.3016590792    0.7814886098    0.0267373051
 O    2.0169319291    0.9031742343    1.2258436036
 C    1.7815399982   -0.1842646421    2.1118549966
 C    0.2944548347   -0.3159444617    2.3978648672
 O   -0.4345101648   -0.6199684906    1.2147209742
 C   -0.0104194010    0.0474105389    0.0614892707
 H   -0.2549549502    2.1513236959    0.7905837953
 H   -0.2934284587    1.9799961503   -1.0305345451
 H    1.9450651507    0.6949407169   -0.8465402729
 H    2.1658039707   -1.1247615552    1.6885791956
 H    2.3326216446    0.0398788908    3.0295326967
 H    0.0986442811   -1.1369428164    3.0943365191
 H   -0.0716198751    0.6175973804    2.8522006173
 H   -0.2943000461   -0.5297897632   -0.8123571555