17

 O    0.3433795785    0.6384755668   -2.1314770149
 C    0.0867551864    1.3619846370   -1.1949294057
 C    1.1257930106    1.8076153534   -0.1830380398
 C    2.4933305276    1.1510888664   -0.4287484965
 C    3.4963204495    1.5876539854    0.5337964978
 C    4.3055398302    1.9622231717    1.3396787887
 C   -1.3185606249    1.8738649895   -1.0199546158
 C   -2.0493790245    1.6921992397    0.2520996963
 O   -1.5297534607    2.9602520504   -0.1167127299
 H    1.1980328718    2.9007432194   -0.2314058072
 H    0.7700538647    1.5974833789    0.8324349609
 H    2.3848802336    0.0611131540   -0.3922545523
 H    2.8226214422    1.3767668320   -1.4488824227
 H    5.0329531888    2.2844820241    2.0426677007
 H   -1.8931436969    1.9020454302   -1.9443031847
 H   -3.1329898380    1.5946592961    0.2178163992
 H   -1.5607124389    1.2068542651    1.0950120459