16

 O   -0.6433329889    0.7666427715   -0.9029772939
 C    0.2502206695    0.8000417087   -0.0995017578
 C    1.3049972445    1.9066181851   -0.0282159447
 N    2.5459963292    1.3143679243    0.4527477480
 C    3.6465074081    1.6608688861   -0.0647603797
 O    3.8977479752    2.5175050039   -1.0794919762
 C    2.7881016787    3.0453228102   -1.7782154622
 C    1.9241497068    2.1079410723   -2.5704073233
 C    1.4029332563    2.7346727613   -1.2948890194
 H    0.3801692751    0.0225250728    0.6842370627
 H    0.9444592125    2.5661503553    0.7805970622
 H    4.5832650078    1.2511096417    0.3071543417
 H    3.0374598915    4.0251754124   -2.1657463901
 H    1.5204502015    2.4512577149   -3.5156187144
 H    2.1863816362    1.0554333060   -2.5465625333
 H    0.6538940558    3.5114707833   -1.3995640896