16

 C    0.0965303412    1.3097789590    0.1521749276
 O    0.0376794157   -0.1000613882    0.0152331650
 C    0.6090488908   -0.5742245872   -1.1522199440
 O    2.0168603506   -0.3388764915   -1.1596751477
 C    2.7152540830   -1.4499087794   -1.7093391182
 C    1.7601833213   -2.6208113432   -1.6213250349
 O    1.2256949104   -2.7913398116   -0.3073029467
 C    0.4486048287   -2.0772184654   -1.2696487064
 H    1.1302079784    1.6591962230    0.2499395589
 H   -0.3694242912    1.8131442322   -0.7088023153
 H   -0.4602789939    1.5628857028    1.0565474803
 H    0.1539386687   -0.0722196813   -2.0290097460
 H    2.9896098450   -1.2692845204   -2.7604584327
 H    3.6327831803   -1.5998238737   -1.1302079589
 H    1.9077700760   -3.5201442917   -2.2124202660
 H   -0.5036814649   -2.5127917035   -1.5557607951