16

 O   -0.0527108735    1.3119019955    0.0649808510
 N    0.0549715583   -0.0774951090    0.2070546452
 C   -1.0441964834   -0.6508253979   -0.0489518683
 C   -2.4478222246   -0.2248758239   -0.4372119530
 C   -2.8537398235   -1.7343094572   -0.4281131607
 O   -3.0210345413   -2.3434325541   -1.6915662422
 C   -1.7242731034   -2.6394033440   -2.1724568467
 O   -0.9282737314   -2.9568312647   -1.0507288083
 C   -1.3966454608   -2.1370307335    0.0008401620
 H    0.8364659345    1.6113679112    0.2854450658
 H   -2.9524145794    0.3933834888    0.3114889991
 H   -2.5410962355    0.2673121015   -1.4097336443
 H   -3.6948477876   -2.0109622546    0.2069891593
 H   -1.7769483889   -3.5092850198   -2.8316024042
 H   -1.3030997938   -1.7748334352   -2.7134915795
 H   -1.2206570258   -2.6507753632    0.9469087849