25

 C    0.3367508761    1.4841791873    0.2177065664
 C    0.0426877393    0.0093260703   -0.0699151853
 C    0.6894814630   -0.5560982914   -1.3508947703
 C    0.3520936607   -2.0517375025   -1.4650698287
 C    0.2147181746    0.1920272923   -2.6056368204
 O    2.1039249861   -0.3835816441   -1.1260438084
 C    2.9834263702   -0.7375773030   -2.1460595017
 C    3.4926974168    0.3115254487   -3.1045678317
 C    4.3801445524   -0.2226178371   -1.9985192528
 H    1.4142321248    1.6642793835    0.2318066291
 H   -0.1098189197    2.1465444024   -0.5304008704
 H   -0.0709885879    1.7713771398    1.1918987291
 H    0.4019309274   -0.5978352274    0.7691710179
 H   -1.0400589008   -0.1523700283   -0.1339117350
 H   -0.7323513776   -2.1964951779   -1.4937186268
 H    0.7636161779   -2.4949127404   -2.3766986543
 H    0.7510702280   -2.5968715875   -0.6046985657
 H    0.4965799605    1.2467527707   -2.5713132974
 H    0.6429291756   -0.2423211771   -3.5127088895
 H   -0.8753739613    0.1304899202   -2.6866197717
 H    2.8655924809   -1.7493634138   -2.5299978151
 H    3.7009045259    0.0261024760   -4.1304598140
 H    3.1083751021    1.3170764454   -2.9805013599
 H    4.5610442966    0.4316095204   -1.1531631174
 H    5.2060186582   -0.8772650765   -2.2528839960