18

 C    0.1760343376    1.4210452101    0.2839700901
 C   -0.0427200610   -0.0712246513   -0.0269989973
 C   -1.4758588048   -0.3777881352   -0.1386426040
 N   -2.6036102501   -0.6186978107   -0.2116318791
 C    0.7139499366   -0.5328761716   -1.2835496307
 C    2.1509968952   -0.9968665940   -1.0867982156
 C    1.0797740969   -2.0044779008   -1.3862826646
 C    0.3888451690    0.1682515098   -2.4965832246
 C    0.1095172724    0.7625163517   -3.5041981982
 H    1.2433409848    1.6125154611    0.4236856946
 H   -0.1822343901    2.0388728643   -0.5422207042
 H   -0.3555675871    1.7099412210    1.1935885262
 H    0.3379736496   -0.6644997731    0.8139261312
 H    2.8602203445   -0.7504523418   -1.8673331403
 H    2.5519011944   -0.9514625225   -0.0796026910
 H    0.7390421269   -2.6528316952   -0.5861923088
 H    1.0533468751   -2.4511151607   -2.3723369306
 H   -0.1460393899    1.2783072788   -4.3965189930