17

 C    0.0770285355    1.5622372089    0.3190455693
 C   -0.1348051048    0.1301038141   -0.1694106206
 O    0.7033456430   -0.7981312403    0.5264072606
 C   -1.5716238980   -0.2794744092   -0.0673604168
 N   -2.4393788484    0.0188728209    0.8407632524
 C   -3.5726584016   -0.7253700530    0.5272815153
 C   -3.3163794831   -1.4482475316   -0.5969846519
 N   -4.0527250407   -2.2724757251   -1.4287113861
 O   -2.0451180825   -1.1789788734   -0.9932304210
 H    1.1440266962    1.7973043982    0.3001328115
 H   -0.4575450891    2.2761815685   -0.3144687773
 H   -0.2990185894    1.6766532342    1.3399098495
 H    0.1714099122    0.0395886862   -1.2163641957
 H    0.4173279914   -0.7957003208    1.4475443930
 H   -4.4734775377   -0.6814023609    1.1168918768
 H   -4.8910035479   -2.6246652133   -0.9878527830
 H   -3.5078097050   -3.0290042133   -1.8233964562