17

 O   -0.0078951826    1.3805877901   -0.0792473094
 C    0.0171287520   -0.0145362152   -0.0114728018
 C   -0.4572877059   -0.6996324964    1.2378834578
 C   -1.3236215522   -0.7003810383   -0.0195469274
 C   -2.6051712401    0.0579597995   -0.0940468762
 C   -3.5548034353   -0.6470572616   -0.7208024793
 C   -2.9960015958   -1.9471063964   -1.2005818484
 O   -1.9182272577   -1.7922285080   -2.1579888207
 C   -1.5825755811   -1.9762707207   -0.7812829894
 H    0.7219562474    1.7158564438    0.4522469684
 H    0.8128568002   -0.4895798236   -0.5852423433
 H    0.0058233534   -1.6365182965    1.5327919279
 H   -0.7851546550   -0.0681417958    2.0565927046
 H   -2.6967330563    1.0685306093    0.2821330317
 H   -4.5714563854   -0.3244019641   -0.9043748700
 H   -3.6068479450   -2.8337011770   -1.3404225877
 H   -1.0355697510   -2.8860011292   -0.5449619368