17

 C   -0.0291413995    1.5855947493   -0.1036411236
 O    1.3493363844    1.9802569895    0.0101666237
 C    2.0162304410    0.9404562184    0.7422901430
 C    1.5553746024    0.9943072449    2.1874731593
 C    0.4712490079    0.2787756938    2.4950532437
 C   -0.0036843595   -0.6523522563    1.4028050048
 O    1.1720072988   -1.4221564271    0.9817377482
 C    1.4640139277   -0.3542908559    0.0646871885
 C   -0.0161133350    0.0612484400    0.0002884358
 H   -0.6320417601    2.0532136934    0.6861040187
 H   -0.3911291620    1.9390757949   -1.0731840479
 H    3.0879313745    1.1032771372    0.6181082247
 H    2.0481633162    1.6685229636    2.8796767159
 H   -0.0097408278    0.2979120490    3.4668409452
 H   -0.8411430738   -1.2966714877    1.6747755367
 H    2.0325261393   -0.6772511030   -0.8092140584
 H   -0.6260301844   -0.4631673741   -0.7343581384