17

 O   -0.0417914694    1.4412644797    0.0971507890
 C    0.0244546340    0.0244248303   -0.0198947631
 C    0.9216951356   -0.5814861988    1.0807987225
 C    0.7710125999   -2.0721034178    1.2425371660
 C   -0.3734217854   -2.7020581154    0.9770562415
 C   -1.5567514498   -1.9629635481    0.4696026127
 N   -2.0039239837   -0.7756015501    1.2589210689
 C   -1.3608493455   -0.5852691697   -0.0521201441
 H   -0.5368717141    1.6241920095    0.9046868546
 H    0.4891868118   -0.1564388422   -0.9964867823
 H    1.9619209290   -0.3096183885    0.8765204816
 H    0.6593424794   -0.0952403257    2.0302212904
 H    1.6222856933   -2.6259947112    1.6285271942
 H   -0.4712864015   -3.7730919275    1.1260623063
 H   -2.3414232106   -2.5605453818    0.0137737152
 H   -3.0117409165   -0.6727187882    1.1664458015
 H   -1.9803464163   -0.2557044945   -0.8833967049