16

 C    0.1470113563    1.7522722300    0.1929239265
 C    0.0851608032    0.2348068418   -0.0497886160
 N    0.6999097557   -0.1601286581   -1.3064553227
 C   -0.0488704451   -0.6722769719   -2.3384664700
 C    0.7537339958   -1.1215176360   -3.5458835101
 O   -1.2592605954   -0.7678138929   -2.2740572456
 C    0.6988758197   -0.5012331055    1.0690449258
 N    1.2054395234   -1.0583586099    1.9455504024
 H    1.1828579115    2.1004579490    0.2366202583
 H   -0.3654095375    2.2649690497   -0.6242034719
 H   -0.3414051466    2.0090602189    1.1364823134
 H   -0.9608540757   -0.0780930233   -0.1379596646
 H    1.7037308490   -0.1270340570   -1.3818784968
 H    0.9664209897   -2.1918131357   -3.4546264700
 H    0.1502779477   -0.9733686412   -4.4420204785
 H    1.7036042083   -0.5901936878   -3.6496531102