25

 C    0.2467224567    1.3447157627   -0.1125757766
 C    0.0218192758   -0.1710461181   -0.1175902052
 C   -1.4488869430   -0.5995026266    0.0753247132
 C   -2.2916622912   -0.3231315339   -1.1870699229
 C   -3.8082716888   -0.3440441623   -0.9677308272
 C   -1.5427216329   -2.0834876652    0.4911654265
 C   -1.0944636852   -2.3633634673    1.9061944612
 C   -0.5131803995   -3.6503398237    2.3083467349
 O    0.3107223259   -2.4934932026    2.1561884516
 H    1.3067499994    1.5813526827   -0.2484569898
 H   -0.3049216669    1.8529171175   -0.9101954156
 H   -0.0697586954    1.7851657866    0.8398051346
 H    0.3879615562   -0.5961567309   -1.0629487442
 H    0.6321712691   -0.6231522492    0.6693316714
 H   -1.8705377098    0.0026443980    0.8960277257
 H   -2.0159342145    0.6562077121   -1.5937039770
 H   -2.0188453866   -1.0555587517   -1.9597157547
 H   -4.3415710388   -0.1264922786   -1.8985952340
 H   -4.1640418975   -1.3157935505   -0.6102728602
 H   -4.1090810701    0.4086961088   -0.2302789674
 H   -2.5813643053   -2.4272719969    0.4066643654
 H   -0.9496811116   -2.6980471742   -0.1982650123
 H   -1.6171969845   -1.7911074440    2.6762954046
 H   -0.6327395044   -4.0085070994    3.3300435854
 H   -0.3681983368   -4.4285961332    1.5596917622