20

 C    0.0794072197    1.5562941744   -0.1126164265
 C   -0.0018249978    0.0384027151    0.0562883266
 C   -1.4523268745   -0.5274125129    0.0813362881
 C   -1.4330868748   -2.0199282817   -0.0984058776
 C   -1.6712432125   -2.8575313900    0.9030555331
 C   -2.0109755654   -2.3849050752    2.2779745475
 O   -2.0675460037   -0.9645359757    2.4335532695
 C   -2.1675004888   -0.1302411998    1.3550337484
 N   -2.7515326238    0.9901596799    1.4547681895
 H    1.1213321648    1.8907244626   -0.0847963618
 H   -0.3468951054    1.8668632208   -1.0727249092
 H   -0.4752041823    2.0729701784    0.6739343607
 H    0.5309573762   -0.4549595836   -0.7663426927
 H    0.5053856369   -0.2750163304    0.9769388178
 H   -2.0050067570   -0.0612274860   -0.7414981257
 H   -1.1784789695   -2.3932560095   -1.0866713829
 H   -1.6354559176   -3.9350383181    0.7696266651
 H   -2.9838344721   -2.7932481489    2.5916231288
 H   -1.2719672370   -2.7464498193    3.0051527316
 H   -3.1460118754    1.0914766097    2.3928751898