25

 C   -0.0087095975    1.6006925491    0.0669782693
 C    0.0077618024    0.0634648993    0.0340420351
 C    0.8353444805   -0.4588012632    1.2191700292
 C   -1.4222733285   -0.5363658190   -0.0242292987
 C   -2.1795477620   -0.0585124276   -1.2768917258
 C   -1.4295840595   -2.0691051284    0.0080828991
 C   -1.2332383047   -2.8477185604    1.3328424845
 O   -2.4170690912   -3.6334965828    1.1000040073
 C   -2.7957213846   -2.7977585199   -0.0101010567
 H    1.0108047052    1.9928378413    0.1410606132
 H   -0.4613633697    2.0360821048   -0.8269903690
 H   -0.5658473830    1.9671680404    0.9379182824
 H    0.5209160964   -0.2454979679   -0.8895055439
 H    0.3513205587   -0.2259441516    2.1749334287
 H    0.9939494179   -1.5391087388    1.1745717172
 H    1.8232922845    0.0131406429    1.2304340095
 H   -1.9719740892   -0.1822023348    0.8621896700
 H   -1.6325381596   -0.3277296648   -2.1886253495
 H   -3.1718672081   -0.5150850132   -1.3399471165
 H   -2.3237677057    1.0240646962   -1.2818871991
 H   -0.7716484785   -2.4561177014   -0.7781124009
 H   -0.3383751762   -3.4741750824    1.4232367304
 H   -1.3272532315   -2.2311831205    2.2378583764
 H   -3.6507010092   -2.1534520608    0.2435175278
 H   -3.0464859670   -3.3823355865   -0.9025568799