15

 C    0.0955302202    1.4408105044   -0.0000528496
 C   -0.0736187404   -0.0321301069   -0.0563218538
 C   -1.1680541454   -0.8470138056   -0.2162411518
 C   -0.6680528834   -2.1693181615   -0.0375397237
 C    0.6452216121   -2.0495142663    0.1870749909
 O    1.3312862569   -3.2222616875    0.1451364423
 C    0.2143327178   -4.1531411522    0.2353463716
 O   -0.9796818269   -3.5070024766   -0.2350666791
 O    1.0800338262   -0.7884964096    0.1784196455
 H    0.8758062785    1.7838836863   -0.6889665430
 H   -0.8434594546    1.9236313962   -0.2813310996
 H    0.3672282346    1.7902350403    1.0039185212
 H   -2.1752273705   -0.5112686105   -0.4031943165
 H    0.4310118086   -5.0228771331   -0.3851256024
 H    0.0867901464   -4.4212374074    1.2950575081