16

 C   -0.0854605721    1.5314394282    0.0649775658
 C   -0.0969257056    0.0087670866   -0.0819390910
 C    0.8187561842   -0.4596255616   -1.2310029500
 O    2.1423011523   -0.0473199889   -1.0280483111
 C    0.7821264664   -1.9789501094   -1.3835944369
 O    1.7967596310   -2.6335680028   -1.2364686052
 C   -0.4866067203   -2.5870376884   -1.7119994411
 C   -1.5484469390   -3.0742764336   -2.0017137202
 H    0.9331692156    1.8909001678    0.2289114794
 H   -0.4753338302    2.0176271747   -0.8362267546
 H   -0.7042430687    1.8456075218    0.9106318674
 H    0.2527303523   -0.4613678628    0.8452096702
 H   -1.1148279780   -0.3520372686   -0.2672141115
 H    0.4327413747   -0.0342569942   -2.1742368189
 H    2.6657160478   -0.8637056566   -0.9795014942
 H   -2.4805164806   -3.5186344923   -2.2557790781