22

 C    0.1175781647    1.5122836011    0.0582343684
 O   -0.0521650667    0.1137671027    0.0474334421
 C    0.7545621002   -0.5289765158   -0.9132138147
 C    0.5185297399   -2.0250859150   -0.9325955398
 C   -0.2225191760   -2.7177738086    0.1540320360
 N   -0.7815817163   -2.6395463844   -1.1988619453
 C   -1.9606128110   -1.7976342119   -1.4163392670
 C   -3.1882487262   -2.6966646021   -1.5487551079
 O   -3.3971086231   -3.4967831121   -0.3972201539
 H    1.1558278670    1.7929854308    0.2948000595
 H   -0.1478345097    1.9632490876   -0.9106763683
 H   -0.5426687270    1.9149147242    0.8296178951
 H    0.5643094299   -0.1056437187   -1.9159732020
 H    1.8223376423   -0.3526212413   -0.6947280177
 H    1.3413484304   -2.5510088056   -1.4166020962
 H    0.0876577628   -3.7053358696    0.4876877845
 H   -0.6650356692   -2.0858887371    0.9189389530
 H   -2.1092495808   -1.0639895367   -0.6141035822
 H   -1.8263241759   -1.2451515130   -2.3556831756
 H   -4.0866118669   -2.0810001459   -1.6663233336
 H   -3.0843886514   -3.3202910629   -2.4498523352
 H   -2.6268772870   -4.0705236459   -0.3257567691