18

 N   -0.1470631020    1.5297373663    0.0912714429
 C   -0.0491470836    0.0726645961    0.0306374361
 C    0.6207059388   -0.5677800404    1.2736883503
 C   -0.5510703415   -0.8030633409    2.2001356365
 C   -1.7110938365   -0.7844224456    1.5486420443
 C   -1.5222598791   -0.5355524531    0.0528511714
 N   -2.5686871003    0.3057686641   -0.5270717769
 C   -1.5088288290   -1.8328761050   -0.6461757472
 N   -1.4736549460   -2.8473151040   -1.2002608801
 H   -0.2941956445    1.8366389663    1.0487802458
 H    0.7131501250    1.9563746994   -0.2322443739
 H    0.4557353107   -0.1888368901   -0.9017603262
 H    1.1081108041   -1.5187259374    1.0190617449
 H    1.3946655210    0.0821594570    1.6965388236
 H   -0.4336110687   -0.9989639105    3.2598225192
 H   -2.7000237263   -0.9576263868    1.9526029688
 H   -2.2274569864    1.2655012364   -0.4693354208
 H   -2.6689728259    0.1008540184   -1.5166426488