18

 C   -0.5558194053    0.8869544971   -1.0403816753
 O   -0.7899758140    0.0943268244    0.1182165217
 C   -1.3156118803   -1.1235962121   -0.1129074780
 N   -1.5585719987   -1.8931412636    0.8538822593
 C   -2.1294718872   -3.2093109837    0.5962062434
 C   -2.3868900435   -3.5927115928   -0.7961832969
 C   -2.5725733050   -3.8868753965   -1.9510510327
 C   -2.8664724393   -4.2435079693   -3.3390345541
 O   -3.7753394719   -3.3528236487   -3.9724296085
 H   -0.1350164610    1.8290123951   -0.6870999636
 H    0.1594470340    0.4062316460   -1.7185698775
 H   -1.4866826414    1.0905059643   -1.5832029431
 H   -1.4979037727   -1.3577217879   -1.1693361344
 H   -1.4618011787   -3.9546737274    1.0494410738
 H   -3.0649087823   -3.2805739250    1.1676832850
 H   -1.9519121880   -4.2102894366   -3.9414336959
 H   -3.2302720679   -5.2828755029   -3.3756491744
 H   -4.5562314069   -3.2934607602   -3.4120225189