21

 C   -0.1666801449    1.5705722612    0.0029735024
 C    0.0383534444    0.0573205680   -0.0130779478
 C    0.8797163338   -0.4887740600   -1.1970992568
 C    1.6099576682   -1.6981050001   -0.6071834843
 C    2.5823125528   -1.4725625618    0.5414794682
 C    2.2934308743   -0.1408522683    1.2350844433
 C    0.7683417008   -0.5237173763    1.2169828089
 O    0.0716569995   -0.4338418422    2.4302497423
 C    1.1708280845   -1.9635563862    0.8054558349
 H    0.7873619630    2.1084634963    0.0341489392
 H   -0.7051662875    1.9060496082   -0.8891766461
 H   -0.7604822643    1.8835385895    0.8704130006
 H   -0.9462893892   -0.4289598996   -0.0317140506
 H    0.2436047080   -0.7794241131   -2.0386137346
 H    1.5802158562    0.2660729037   -1.5748105995
 H    1.8392829690   -2.5440192141   -1.2457249553
 H    3.5109546662   -2.0281917906    0.6015572001
 H    2.6532588569   -0.1450274441    2.2670460934
 H    2.6102171386    0.7855314277    0.7420743221
 H   -0.0323352826    0.4985393165    2.6492315084
 H    0.7959623724   -2.8895521746    1.2192540412