19

 C    0.5288146358    1.4847344833    0.0402543607
 C    0.0880384205    0.0203264331    0.0037476471
 O   -1.3310758684   -0.0666306858   -0.0184651437
 C    0.7457531904   -0.7512818686   -1.1958555770
 O    1.0716778593    0.0337265611   -2.3343917291
 C    1.9069428858   -1.4710715092   -0.5618076164
 C    1.8154064187   -1.4831961432    0.7675643325
 C    0.5876668579   -0.7618715458    1.2625289913
 O    0.7946244472    0.0085884228    2.4351205198
 H    1.6197790049    1.5811046882    0.1052593390
 H    0.2084314991    1.9975485724   -0.8712255503
 H    0.0863072362    1.9764165214    0.9081324451
 H   -1.6437091933    0.4174254070   -0.7909118700
 H    0.0016065539   -1.4677429873   -1.5654749562
 H    1.8358974038    0.5763865840   -2.1126533483
 H    2.6737803753   -1.9545171545   -1.1581371827
 H    2.4949723406   -1.9774102774    1.4537868360
 H   -0.2037086396   -1.4692899181    1.5365149896
 H    1.5873279020    0.5401495163    2.3062859624