20

 C    0.0533535861    1.5824590936    0.0204652446
 C    0.0253958410    0.0628594095    0.0592492179
 C    0.8989878282   -0.7246104015   -0.9731319348
 C    1.4458244635   -1.6116611190    0.1708750424
 O    2.8570110990   -1.4748429526    0.4172135258
 C    2.9640401768   -0.4595804678    1.3285390296
 C    4.3623559445   -0.0671849697    1.6621876633
 N    1.9003567990    0.0465759269    1.8126131330
 C    0.7725320030   -0.6755260450    1.2165758227
 H    1.0764080144    1.9569327546    0.1165699395
 H   -0.3639319149    1.9531127086   -0.9224261471
 H   -0.5321554533    2.0118254311    0.8399955600
 H   -1.0109091232   -0.2900399066    0.0202396738
 H    0.3599174202   -1.2429180967   -1.7695114524
 H    1.6908682908   -0.1205415287   -1.4246496769
 H    1.2015738600   -2.6736055130    0.1391390138
 H    4.9176460539   -0.9336240167    2.0349242241
 H    4.8809529191    0.2884122046    0.7661625608
 H    4.3544057597    0.7177369322    2.4174505876
 H    0.1391990220   -1.0960726438    2.0030159023