18

 C    0.0248608846    1.4337149048    0.1243558101
 C    0.0128371764   -0.0517303603   -0.0321577876
 C   -0.1842345659   -0.7828780091   -1.1269101111
 C   -0.0854265972   -2.2469468988   -0.8135103802
 C    1.0722161999   -2.9783857813   -1.5020466671
 O    1.2016498489   -4.2948764448   -1.0074086423
 O    0.1411409077   -2.2983373243    0.6068457636
 C    0.2375003677   -0.9796322696    1.1360821923
 H    0.9874026814    1.7816346988    0.5197770830
 H   -0.1544905596    1.9395646175   -0.8274454030
 H   -0.7423194358    1.7633696292    0.8361654766
 H   -0.3774567919   -0.4049458380   -2.1235045217
 H   -1.0151412251   -2.7956366303   -1.0318380896
 H    0.8850075388   -3.0535416737   -2.5792291820
 H    1.9959050216   -2.3943267966   -1.3571133709
 H    1.2036249669   -4.2091163354   -0.0459191331
 H    1.2233987901   -0.8258912381    1.6042042654
 H   -0.5174553284   -0.8412691801    1.9267455076