20

 C   -0.1153715666    1.6045691875   -0.0424105755
 C    0.0433809071    0.0919845919   -0.0263491862
 O   -1.2403344360   -0.5264656594   -0.1154386625
 C    1.0549225514   -0.6200329968   -1.0033746437
 C    1.5931936944   -1.4660790350    0.1904784410
 C    2.8112680622   -0.9395941505    0.9698753460
 C    2.8983153310    0.5257588177    0.9952201167
 N    1.9324863969   -0.1150464439    1.9155835684
 C    0.7235485828   -0.6485949999    1.1654188643
 H    0.8247101231    2.1406532234    0.0977700219
 H   -0.5416725592    1.9280180480   -1.0008846042
 H   -0.8030742290    1.9081968662    0.7522998198
 H   -1.6248904188   -0.2790627011   -0.9641175641
 H    0.5389638739   -1.2062127687   -1.7674682789
 H    1.7909798643    0.0237762653   -1.4922664132
 H    1.5148843840   -2.5484988817    0.1137601905
 H    3.6026195267   -1.5732220285    1.3591866077
 H    3.7284475369    0.9621203675    1.5437693865
 H    2.5740239635    1.1226540332    0.1517217421
 H    0.0257932614   -1.0984924053    1.8704793033