17

 O   -0.1213573411    1.4860878271    0.0032253628
 C   -0.0326007241    0.0874436657    0.0098339956
 C    0.1068992306   -0.6595336553    1.3596719698
 C   -1.1391596031   -0.0160494862    2.0786481235
 O   -2.1631083823    0.0143559409    1.0152222320
 C   -1.4159160086   -0.6630666462    0.0379706042
 C   -1.6407976460   -1.5884860510   -1.1508685452
 O   -0.4955193034   -2.3703888742   -0.6538426591
 C   -0.6870015215   -1.8190997891    0.6964869359
 H    0.7533977952    1.8418144966   -0.1769239586
 H    0.6322871408   -0.2996528837   -0.7626906734
 H    1.0195382766   -0.7301154369    1.9547201902
 H   -1.5140131350   -0.6099128418    2.9184255057
 H   -0.9302281535    1.0067158398    2.3956633938
 H   -2.5638100620   -2.1787308165   -1.1151895949
 H   -1.4661315283   -1.1989298486   -2.1576962467
 H   -1.1922222442   -2.5389532206    1.3442409145