19

 C   -0.0403439044    1.5426768646   -0.3274806496
 O    0.6265552476    0.3340555502    0.0012627137
 C    0.7700477973   -0.5309141786   -1.0831311796
 C    1.4607849910   -1.8983893476   -0.7943318672
 C    1.3636445867   -2.3170219490    0.6642353899
 O    1.7869982191   -3.6707784777    0.7413109946
 C    0.4084966614   -2.6150772169   -1.6967591354
 C   -0.4489392485   -1.3429325085   -1.5941550493
 O   -1.6168402956   -1.1023195561   -1.7049530864
 H    0.5122270063    2.1022018873   -1.0982440085
 H   -1.0579788553    1.3540364745   -0.6872788406
 H   -0.0803793629    2.1414517661    0.5849877707
 H    1.2509723535   -0.0276539866   -1.9414808093
 H    2.4957409037   -1.9740773284   -1.1311625096
 H    1.9917823131   -1.6575292754    1.2790788257
 H    0.3273774213   -2.1995926289    1.0188693290
 H    1.7164837632   -3.9546051247    1.6573608590
 H    0.7535369566   -2.7974273341   -2.7190078151
 H   -0.0297857742   -3.5340309403   -1.3031490319