23

 C   -0.0486462687    1.5259795733   -0.0938778659
 C   -0.0338711191   -0.0152095541    0.0125532378
 C   -1.5075101841   -0.4485863503   -0.1899747299
 C    1.1432811870   -0.6769982857   -0.7958501825
 C    2.0883841268   -0.1724423666    0.3569474034
 C    0.8260041606   -0.5406625340    1.2215672052
 C    0.9216671555   -2.0753414160    1.0768272719
 C    0.0052104017   -2.9087276281    0.2142911128
 C    1.1583940067   -2.1770798642   -0.4285778074
 H    0.9163774751    2.0160970150    0.0248987722
 H   -0.4482109722    1.8211330238   -1.0709062088
 H   -0.7216473865    1.9384817646    0.6665582267
 H   -1.6350670940   -1.0917665017   -1.0645803668
 H   -1.9096275401   -0.9736137929    0.6803939097
 H   -2.1433634513    0.4265720350   -0.3492815801
 H    1.3151138226   -0.4177448393   -1.8427783963
 H    2.9808444213   -0.7760101258    0.5380951719
 H    2.3630753378    0.8795837179    0.3290446530
 H    0.6750015981   -0.1426655515    2.2273475649
 H    1.5615987972   -2.5861205443    1.7888392652
 H    0.1809546494   -3.9773997037    0.3141442910
 H   -1.0300658734   -2.6779584274    0.0359182970
 H    1.9745755694   -2.7636292039   -0.8374497850