18

 O    0.2259265912    0.3816078850    1.0024117044
 C   -0.1492533614    0.3238328005   -0.3738360695
 C   -1.4899675004   -0.3813173910   -0.4155217015
 C   -2.0791847666   -0.9300197248   -1.7596617072
 C   -2.1933066669   -2.3233458951   -1.1195881206
 C   -0.8093150897   -2.7904350417   -0.7196251313
 C   -1.5427752190   -1.8032004726    0.1502267775
 O   -1.8821829420   -2.0796198995    1.4611695114
 H    1.1006072749    0.7761426462    1.0645469485
 H   -0.2232198964    1.3325411226   -0.8099741836
 H    0.5965970802   -0.2351739341   -0.9595854021
 H   -2.2344658744    0.2325759027    0.1003798417
 H   -3.0363495918   -0.4727396686   -2.0168574780
 H   -1.4186020253   -0.8746437741   -2.6324942897
 H   -3.0185867731   -3.0127155372   -1.2454806931
 H   -0.7758276342   -3.7860089262   -0.2892311837
 H    0.0606023528   -2.5261381128   -1.3185440867
 H   -1.1670882381   -1.7287706393    2.0063339434