16

 N   -0.0242120300    1.5009382255    0.0553221447
 C    1.2749146913    0.7925203236   -0.0262870430
 C    0.0021009156    0.0320006322   -0.0197464899
 C   -0.2639909840   -0.5942114801   -1.3899479251
 O   -0.2657564862    0.3888073300   -2.3992628523
 C    1.1006797990    0.6652912388   -2.6069427985
 C    1.8419892421   -0.5469713331   -2.1424233138
 O    0.8598644341   -1.4414869427   -1.6676262114
 C    1.9634835120    0.7664495353   -1.3562989024
 H   -0.1894328686    1.7766056380    1.0205277591
 H    1.9093173164    0.7771535626    0.8556552814
 H   -0.2810506030   -0.5622560312    0.8436891934
 H   -1.1784009520   -1.1856553245   -1.4548629054
 H    1.2879921457    1.2393595547   -3.5037342163
 H    2.6700931884   -1.0384842756   -2.6337912399
 H    2.8967339992    1.3091655465   -1.4661397907