25

 C    0.4081255323    1.5434891733    0.0982485222
 C   -0.1274842810    0.1214948195   -0.1088530539
 C    0.5131981452   -0.5686169172   -1.2970302888
 C    1.8251668719   -1.3091599781   -1.1690499575
 C    0.5557897045   -2.0742598549   -1.4700226488
 C   -0.0244733178   -3.0047765516   -0.4209538982
 C    0.3859688542   -2.5778257540   -2.8857448176
 O    1.0807942196   -3.8014259468   -3.0349079903
 C    0.9172963724   -4.3713413015   -4.3092786000
 H    1.4891618562    1.5340344396    0.2722655927
 H    0.2212786162    2.1686647090   -0.7820078063
 H   -0.0689411771    2.0265571353    0.9568141057
 H    0.0425944296   -0.4632194708    0.8015210505
 H   -1.2162633086    0.1593582255   -0.2480303410
 H    0.3899478601   -0.0114396380   -2.2250866528
 H    2.5685514066   -1.2079304256   -1.9526598910
 H    2.2449920278   -1.4148082955   -0.1730232905
 H    0.2003195433   -2.6736129313    0.5954304948
 H   -1.1148266269   -3.0785205384   -0.5164980171
 H    0.3901953457   -4.0087266932   -0.5480669462
 H   -0.6856511441   -2.7262648595   -3.1123656431
 H    0.7691163969   -1.8347318339   -3.6058432780
 H   -0.1405572310   -4.5884508191   -4.5299648104
 H    1.3014909713   -3.7134073192   -5.1058861471
 H    1.4800732226   -5.3081183035   -4.3259146575