21

 C   -0.0165469478    1.5487244851    0.2514102902
 C   -0.0552435065    0.0343581381    0.0087666393
 C   -1.5208109722   -0.4360930272   -0.1040705012
 O   -2.3067223178   -0.0787596402    1.0231150333
 C    0.7547524535   -0.4678159001   -1.1934307174
 O    0.5522810154   -1.8360479683   -1.4841314775
 C    1.0909187904    0.4070638760   -2.3910184651
 C    2.1793575232   -0.0850675802   -1.4549392679
 O    2.8339179872    0.7893025930   -0.5849318271
 H    1.0013262325    1.9049427509    0.4039718587
 H   -0.4562454491    2.0924890124   -0.5926480966
 H   -0.6207726111    1.7831822144    1.1304977699
 H    0.3711479713   -0.4688362852    0.8908297976
 H   -2.0010858253    0.0517665662   -0.9618954253
 H   -1.5547517954   -1.5209671452   -0.2687155590
 H   -1.9619095310   -0.5605241979    1.7821300968
 H   -0.2565093783   -1.9151862831   -2.0007827198
 H    1.0309841266   -0.0363284599   -3.3793000015
 H    0.8340805913    1.4584484133   -2.3356132190
 H    2.7907292568   -0.9080411383   -1.8227681587
 H    3.4056399262    1.3580529860   -1.1110317299