21

 C   -0.0178837368    1.5129127629    0.1272943896
 C    1.3350239621    0.8340572479    0.0106424851
 O    2.1297559935    0.3442150900    1.0691123555
 C    1.6298515224   -0.9994201192    1.2796236883
 C    0.1196101438   -0.7777419806    1.2447649954
 C    0.0801069083    0.0162277178   -0.0742389376
 C   -0.0084391778   -0.9182927129   -1.2612846112
 C    1.3423829787   -1.7051301861   -1.2574153440
 C    1.9673529038   -2.0017666004    0.1467239459
 H   -0.3895383692    1.8535312801    1.0884942911
 H   -0.2768498247    2.1594217360   -0.7074964237
 H    1.9021723230    1.0592145724   -0.8884549474
 H    2.0478719450   -1.3408530019    2.2308829289
 H   -0.4649648741   -1.6999062037    1.1934591093
 H   -0.2174761494   -0.1933774847    2.1041849486
 H   -0.8709727685   -1.5902030463   -1.1759001136
 H   -0.1146093881   -0.3859598906   -2.2126638620
 H    1.2403273177   -2.6471174804   -1.8073342201
 H    2.0635879797   -1.1068309368   -1.8227990434
 H    3.0535670364   -2.0888762121    0.0376803789
 H    1.6157015141   -2.9775561715    0.5062609563