24

 C   -0.0796872989    1.6196014824    0.0850453233
 C    0.0825953795    0.1047087820   -0.0855934520
 C    0.6997416738   -0.5617209087    1.1381526112
 C   -0.1026581274   -0.6229397062    2.4674357968
 C    0.5263768698   -2.0158677371    2.7384944590
 C   -0.3015062522   -3.0888563012    3.4308951703
 C    0.8656590565   -2.1183855557    1.2113746528
 C   -0.1220133710   -2.9279926541    0.3727149707
 H    0.8875567884    2.1037380890    0.2611459666
 H   -0.5242133405    2.0769199615   -0.8045134732
 H   -0.7254799270    1.8552468099    0.9379329505
 H   -0.8963198342   -0.3419477571   -0.2990127685
 H    0.7088553388   -0.0978395866   -0.9650773780
 H    1.6759790082   -0.1002184906    1.3344136666
 H    0.0594292101    0.1644945994    3.2083942893
 H   -1.1803384862   -0.7007770372    2.2802444393
 H    1.4639986797   -1.8795982881    3.2902127344
 H   -1.2557431932   -3.2603510193    2.9222429572
 H    0.2314930057   -4.0458745704    3.4707438671
 H   -0.5281721661   -2.7958120090    4.4623923804
 H    1.8788088225   -2.4750113372    0.9964215252
 H   -1.1614610356   -2.6279247920    0.5412950990
 H    0.0835227029   -2.8100894454   -0.6964311011
 H   -0.0475894137   -3.9953683181    0.6065051332