19

 O   -0.0139593701    1.4403879229   -0.0692509251
 C    0.0136752965    0.0275790384    0.0276675976
 C    0.5989019193   -0.5452942318    1.3638767560
 C   -0.6144118158   -1.3391365394    1.9021980038
 O   -1.2187988891   -1.8105821641    0.6826125274
 C   -1.4326836708   -0.5294190005    0.0781133395
 C   -2.2063044327    0.2458296532    1.1440001594
 C   -3.0783795258   -0.5770220736    2.0563193836
 C   -1.6391552976   -0.3330799133    2.4282619112
 H    0.8912738676    1.7546636275   -0.1463635698
 H    0.5390803388   -0.4049097796   -0.8337786774
 H    1.4529500916   -1.2025703479    1.1827432960
 H    0.9091958150    0.2635174802    2.0314949069
 H   -0.3852391126   -2.1926587421    2.5415946576
 H   -1.9160825611   -0.6578383668   -0.8907695740
 H   -2.3699525344    1.3058093152    1.0124317480
 H   -3.8204077190   -0.0303746672    2.6277884064
 H   -3.3785148352   -1.5707718777    1.7442664150
 H   -1.3802770945    0.2906629068    3.2753202679