16

 N   -0.0979181691    1.2102049627    0.2697384195
 C   -0.0324761934   -0.0313728556    0.0393819526
 O    1.1547795872   -0.7254022059   -0.2052793551
 C    0.7843633951   -2.0445491126   -0.5917668701
 C    1.0705181674   -3.3928971534    0.1119059557
 C    0.3623745691   -3.5610917922    1.4219922477
 C   -0.4695799781   -3.6273827774    0.1552392861
 C   -0.6548197185   -2.1877433550   -0.2457861850
 C   -1.1605729566   -0.9987834309    0.0834241195
 H    0.8330406936    1.6286773165    0.2532468408
 H    0.9951643627   -2.1717321543   -1.6617176795
 H    1.8417620345   -4.0815320747   -0.2096842719
 H    0.5393586047   -4.5159626134    1.9080976042
 H    0.2324039752   -2.7266244662    2.1031549697
 H   -1.0419412996   -4.4985940142   -0.1310057192
 H   -2.1300083442   -0.7155667436    0.4659611748