19

 C    0.5170073631    1.5268764744   -0.3783757554
 C    0.0590434181    0.1354434779    0.0038133741
 O    0.7745087423   -0.9180114977   -0.7067452582
 C    1.0287823783   -1.6328013496    0.5110400366
 C    2.4558212044   -1.3291651834    1.0818043883
 C    1.8143444280   -0.1868249513    1.9572339604
 C    0.4145210329   -0.4975950704    1.3701439114
 C    3.0913757992   -2.4016737187    1.8167961704
 C    3.5833343325   -3.3070846948    2.4379334246
 H    1.5877671822    1.6656643919   -0.2068924655
 H    0.3222166295    1.7022341437   -1.4411026412
 H   -0.0317670242    2.2813170003    0.1959607900
 H   -1.0174640544    0.0371041571   -0.1974578556
 H    0.7020874160   -2.6746205712    0.4816629904
 H    3.1092340542   -0.9612033402    0.2856364531
 H    1.8766821946   -0.4118802671    3.0226859908
 H    2.2113841073    0.8167599517    1.7915146296
 H   -0.4034087716   -0.6315899475    2.0763124651
 H    4.0330171977   -4.1031370152    2.9776893812