14

 O    0.5217368824    0.4186774331   -0.9062347182
 C    0.0970222969    1.1179763538   -0.0190117264
 C    0.9103155828    1.3480482302    1.1978806168
 N    1.5300333154    1.5356488791    2.1561112354
 C   -1.2322688203    1.8131342971   -0.0004889959
 C   -2.2653481620    1.6388379849   -1.1428521269
 C   -2.5537854480    0.1822565783   -0.7038668038
 C   -2.5263283217    1.0923705405    0.5432043264
 O   -3.3144486224    2.0925582575   -0.1928083704
 H   -1.1496689262    2.8309962207    0.3875277833
 H   -2.2526127003    2.0835705309   -2.1364275614
 H   -3.5479253573   -0.1772693033   -0.9677362119
 H   -1.7715758042   -0.5639051410   -0.8392122209
 H   -2.7917732651    0.8917345482    1.5804794039