13

 O    0.0039069405   -0.0102195708   -0.0010782379
 C    0.0337417739    1.1750662293    0.0154231610
 O   -1.1067478857    1.9414357332    0.1634439719
 C   -0.8001201988    3.3330510536    0.0895509969
 C   -1.3821666224    4.0439678745    1.2347129998
 N   -1.8193038819    4.6307962124    2.1278667697
 C    0.7299514501    3.3893225319    0.0336849807
 C    1.4735420453    2.7483653010    1.1363646748
 N    1.1902272210    2.0067444451   -0.1266402423
 H   -1.2303661353    3.7404191663   -0.8322151081
 H    1.1849036036    4.1434784149   -0.5973670648
 H    2.5219087097    2.9798859767    1.2850677223
 H    0.9271909499    2.4538797420    2.0282363160