18

 N   -0.1328690421   -1.1713162479    0.0131680300
 C   -0.0815800235   -0.0163289068    0.0219960119
 C   -0.0139560642    1.4379345670    0.0537610116
 C   -0.5087715020    2.0552696671    1.3905638661
 O    0.0466723718    3.3546803030    1.4058392399
 C    1.3504187016    3.2851663094    0.8512499627
 C    2.4548122173    2.6683130319    1.7574586975
 C    2.5181450055    1.4176302506    0.8329798745
 C    1.4109209634    2.0261808476   -0.0750211286
 H   -0.6328664621    1.8312780542   -0.7594626265
 H   -1.5954592527    2.1430490920    1.4473492226
 H   -0.1621357989    1.4470318289    2.2388844803
 H    1.5721802795    4.2628460258    0.4200788627
 H    3.3745326535    3.2556270971    1.7994486663
 H    2.1184043570    2.4825458825    2.7802479420
 H    3.4719192922    1.2828624509    0.3198972850
 H    2.2539636334    0.4677681974    1.3043049796
 H    1.6892841901    2.1797466694   -1.1174863776