12

 O    0.0301451869   -0.0239169711   -0.1400546769
 C    0.0650306175    1.1663243069   -0.1519801118
 O    1.1170341118    1.8653520123    0.3325581094
 C    1.0461756904    3.3078207369    0.2642532773
 C    1.0860460679    3.8615885242    1.6170512604
 C    1.0981685947    4.3268020113    2.7228102756
 C    2.1323906607    3.8091445546   -0.5766302438
 C    3.0075823632    4.2311701676   -1.2803382734
 H   -0.7382805538    1.8169467151   -0.5503634948
 H    0.0868286342    3.5854737905   -0.1999976693
 H    1.1167373567    4.7344485486    3.7039476193
 H    3.7888740798    4.6007944931   -1.8984905519