19

 C   -0.1661292538    1.3347723457   -0.1849384774
 O   -0.0759113737   -0.0826522011   -0.2419315687
 C    0.8091949890   -0.6235860186   -1.1882548284
 C    2.2549991323   -0.1908781249   -0.9943352004
 C    0.5620100463   -2.1429037092   -1.1687564471
 C   -0.6149271886   -2.2985004914   -2.1330615216
 C   -0.4735809022   -1.1010683668   -3.0648151426
 O   -1.0012256803   -0.9053521097   -4.1187854736
 O    0.4068580704   -0.2097171468   -2.5149291165
 H    0.7220010913    1.7848683673    0.2767662116
 H   -0.3150426409    1.7668219680   -1.1799299136
 H   -1.0339298896    1.5598135665    0.4383539136
 H    2.5895931219   -0.4656499252    0.0097865101
 H    2.8946152395   -0.6829005185   -1.7302022902
 H    2.3661815694    0.8880451351   -1.1209642916
 H    1.4464624264   -2.6654291684   -1.5424838209
 H    0.3571248261   -2.4805673311   -0.1528310642
 H   -0.6234439716   -3.2237397303   -2.7103745439
 H   -1.5775350720   -2.2139748405   -1.6197343847