19

 C    0.1314292313    1.5609631804    0.2221166820
 C   -0.0212536502    0.0520946944   -0.0169098320
 C    0.5499191220   -0.7637740714    1.1548762800
 O   -1.3849766243   -0.2907037729   -0.2544853627
 C    0.7626965080   -0.3334534295   -1.2873741563
 O    1.9325700931   -0.0421573795   -1.3899871786
 C    0.0239223767   -1.1013236498   -2.3729294114
 C    0.8998587513   -1.4005503674   -3.5718437101
 O    0.9821269802   -2.4864384560   -4.0840953680
 H    1.1876515678    1.8338497901    0.2692866367
 H   -0.3427868712    2.1247500031   -0.5862538641
 H   -0.3476905366    1.8435158968    1.1660073385
 H    0.0440820777   -0.4856833268    2.0864281001
 H    0.3993686161   -1.8344405714    0.9890074660
 H    1.6191151951   -0.5713834818    1.2698861546
 H   -1.8835447961   -0.0997324452    0.5463511067
 H   -0.3974339509   -2.0263584700   -1.9678375455
 H   -0.8388428629   -0.4980864657   -2.6884883213
 H    1.4593831029   -0.5281320676   -3.9681325747