15

 O    0.4307157117    0.8036526008    0.9734131559
 C   -0.0071769390    0.2932252209   -0.2552838665
 C   -1.3915349419   -0.3053639888   -0.1607946983
 N   -1.9953199974   -0.2769191922    1.0152457317
 C   -3.2259686695   -0.8051963922    1.1150216304
 C   -3.8504641245   -1.3663415168    0.0161683822
 N   -3.2570480405   -1.4065864562   -1.1876121762
 C   -2.0492056116   -0.8838807050   -1.2682629422
 O   -1.4095396287   -0.8984929268   -2.4524911179
 H   -0.2920920780    0.6384162736    1.5985778283
 H   -0.0165844823    1.0820283999   -1.0249517676
 H    0.6858997889   -0.4790613397   -0.6266023943
 H   -3.7046607154   -0.7723098170    2.0878599835
 H   -4.8451193418   -1.7955662910    0.0874764649
 H   -2.0039109801   -1.3274006395   -3.0846943837