16

 O   -0.0951076467    1.3367256344   -0.0974363359
 C   -0.2139486204   -0.0442298489   -0.1195705063
 C   -0.4759068744   -0.8381626402    1.1266465925
 N   -1.2985577214    0.0340418412    1.9969869055
 C   -2.4418297355   -0.0619915393    1.0199973721
 C   -1.5324412101   -0.7778445777    0.0227381704
 O   -1.9909729023   -1.7720665673   -0.8417267020
 C   -2.1499552896   -1.4246021105   -2.1479545525
 O   -2.5678302652   -2.1905880298   -2.9592775284
 H   -0.3112372028    1.5987296220    0.8116317366
 H    0.4702069273   -0.5169832272   -0.8198685150
 H    0.1527970251   -1.6321587212    1.5102196489
 H   -1.5268213647   -0.4161123692    2.8758928045
 H   -3.2401473093   -0.7215833260    1.3702517823
 H   -2.8589932321    0.9051034734    0.7219373573
 H   -1.8477443276   -0.3809248536   -2.3467136700