15

 O   -0.0776091462    1.3925661905    0.0110176694
 C    0.0534944197    0.0393534176    0.0026348205
 C    1.2840669767   -0.5532886762   -0.0081181356
 C    1.5849408119   -1.9442638249   -0.0176164327
 C    0.7763825956   -3.0367122634   -0.0190959929
 C   -0.6812068057   -3.1375462818   -0.0116472757
 O   -1.2276604271   -4.2383465939   -0.0143757747
 C   -1.5289443668   -1.9296270339    0.0010867423
 C   -1.2270709914   -0.6130725991    0.0068781111
 H    0.7947335248    1.8030703498    0.0080261708
 H    2.1448040079    0.1133132642   -0.0095552941
 H    2.6520956487   -2.1569090789   -0.0249652569
 H    1.2518030000   -4.0135741928   -0.0272612572
 H   -2.5835900679   -2.1934236428    0.0061953717
 H   -2.0564151103    0.0894376157    0.0161599943