16

 N    0.0516203165   -1.1954848808   -0.0660658876
 C    0.0263157878   -0.0383301357   -0.0311827855
 C   -0.0257424519    1.3804799658    0.0260292975
 C    0.2621353162    2.3037153593   -1.1579538132
 C    1.0801519074    2.4393644569    0.0776767975
 O    0.4078475753    3.1919303289    1.0795962071
 C   -0.6384184554    2.2044910583    1.1415941308
 C   -2.0518354925    2.5410305256    1.4612043427
 C   -1.1962209147    1.7348894389    2.4362070378
 H    0.7491485054    1.8128549737   -1.9939772969
 H   -0.4622079645    3.0710613724   -1.4123066252
 H    2.1556159636    2.3342050304    0.1476336513
 H   -2.2620446748    3.5725865875    1.7213302715
 H   -2.8435973065    2.0340060642    0.9201993397
 H   -1.3991212838    0.6751245551    2.5503974779
 H   -0.8476719980    2.2369003896    3.3317880146