17

 C   -0.0397790974    1.5078123720    0.0825884260
 C    0.0048128994    0.0223780164   -0.0402561525
 C   -0.0149376812   -0.7974255425   -1.1343850317
 C    0.0315558641   -2.1624222332   -0.6782461885
 C    0.0128761825   -3.3514689999   -1.4361115395
 C   -0.0045686130   -4.3838621714   -2.0616768191
 C    0.0918271955   -2.1127253261    0.7076931892
 N    0.2349634754   -3.1345281216    1.6505965363
 N    0.0715681998   -0.7987402363    1.0804246721
 H    0.8488177212    1.9127714041    0.5843867363
 H   -0.0887371759    1.9578833108   -0.9114713058
 H   -0.9165074988    1.8527412949    0.6460029077
 H   -0.0755737396   -0.4799433399   -2.1636626860
 H   -0.0147219239   -5.2832430526   -2.6246490976
 H    0.2970749619   -4.0290505287    1.1769602662
 H   -0.5338789754   -3.1749862243    2.3128087411
 H    0.2027524954   -0.4809153216    2.0256422659