13

 C   -0.0763608199    1.6101777945   -0.0511733256
 C    1.4499446334    1.3732847074   -0.0143084371
 O    1.1964484894    0.2031976973    0.8450294235
 C    0.0010048085    0.0677546767   -0.0060878095
 C    0.6629125760   -0.3098646195   -1.3583918868
 O    0.6885863584    0.7468424790   -2.3314527284
 C    1.7483208315    0.6681164476   -1.3645526013
 H   -0.4294993554    2.0080914016    0.8990171367
 H   -0.5257491465    2.1035225079   -0.9102664287
 H    2.1772092747    2.0738805354    0.3924492389
 H   -0.7687524405   -0.5805040371    0.4091642681
 H    0.7188158399   -1.3257051332   -1.7317491025
 H    2.7505093904    0.5049021124   -1.7432770574