18

 C   -0.0176185161    1.6206157508   -0.0306538048
 C    0.0560468715    0.1021328702    0.0249182485
 N    1.1145832619   -0.5223127148   -0.7926045528
 C    1.3560658156   -0.5317346733   -2.2105920925
 C    1.7544261773   -1.1760441404    0.2359725089
 O    2.7038566349   -1.9140117329    0.2685813360
 C    0.7670029951   -0.5543897228    1.2316850898
 C    0.9643450711   -0.1078838350    2.6095905234
 O    0.1321960183   -1.2321635685    2.2872051990
 H    0.9544750100    2.0684134691    0.1973495975
 H   -0.3323721836    1.9658743607   -1.0210287760
 H   -0.7507202886    1.9905059438    0.6931937932
 H   -0.9294406187   -0.3455977292   -0.1588672173
 H    1.5349298985    0.4779039092   -2.5986227277
 H    2.2466429045   -1.1393032923   -2.3890884423
 H    0.5137435291   -0.9707769901   -2.7600538154
 H    1.8960737795   -0.3492828478    3.1174118475
 H    0.4371213298    0.7736759230    2.9708127252