19

 C    0.0356543408    1.5299197547   -0.0725954963
 C   -0.0124420236    0.0051378588    0.0560999319
 O    0.6025848671   -0.4443283623    1.2613473343
 C   -1.4259056470   -0.5224954676    0.0010705022
 C   -2.6064959543   -0.2393043253   -0.9976772331
 C   -3.2574219677   -1.2039982725    0.0550157162
 C   -1.9171516006   -2.0159866305   -0.0230505370
 C   -2.5024217205   -0.3596670911    1.0865087772
 O   -2.6297163474    0.1406481672    2.1649814569
 H    1.0663908406    1.8771671309    0.0345031923
 H   -0.3441511507    1.8593421538   -1.0451528517
 H   -0.5722714975    2.0024922774    0.7073620655
 H    0.5838870078   -0.4446506351   -0.7471631469
 H    0.0952518362   -0.0747412290    1.9947517017
 H   -2.9909730047    0.7806169645   -1.0563468697
 H   -2.4749075029   -0.6833110851   -1.9875994835
 H   -4.2732892246   -1.5907226371    0.0671609408
 H   -1.7574343247   -2.5210938106   -0.9790415435
 H   -1.6498279761   -2.6471915012    0.8250666227