17

 C    0.0200941726    1.4283662571   -0.0420935572
 C   -0.0126483266   -0.0586658574   -0.0010633270
 O    0.8922084865   -0.8081783959   -0.8082623227
 C    0.1042467620   -1.9851229526   -0.4692663315
 C    0.4555787125   -2.2373382594    1.0154752756
 C   -0.2883324513   -0.9216532000    1.2837618340
 C   -0.6994637777   -0.3632384556    2.5195110129
 C   -1.0420338728    0.1207313721    3.5684920946
 C   -1.0959407567   -1.0762842679   -0.0259039698
 H    1.0140237167    1.7927257018    0.2373828710
 H   -0.2140679249    1.7967432429   -1.0453696086
 H   -0.7044264805    1.8392286382    0.6655740468
 H    0.1206290002   -2.7596434699   -1.2316717156
 H   -0.0925603863   -3.0870702942    1.4293252641
 H    1.5193391314   -2.3001105032    1.2619742712
 H   -1.3438469641    0.5403111450    4.4957329121
 H   -2.1601840311   -1.0515687009   -0.2151297300