16

 O    0.0598323834    1.3884954991    0.0483484858
 C   -0.0039955152    0.0070059635    0.0585458279
 C   -1.3783491257   -0.7243790408    0.0064528454
 C   -0.6830502116   -2.1082359589   -0.0342043893
 N    0.1505549086   -1.9008087943   -1.2527097517
 C    0.6583528095   -0.6314894587   -1.1893425719
 O    1.4443574794   -0.0619670291   -1.9162315000
 C    0.2146585790   -1.9980939568    1.2107248004
 C    0.6335172652   -0.7328283969    1.2482389224
 H    0.6564304233    1.6146118429   -0.6833916809
 H   -1.9706214312   -0.5616909061    0.9072544678
 H   -1.9597163124   -0.5114742182   -0.8941447090
 H   -1.3107950437   -2.9915737501   -0.1294987935
 H    0.6673670114   -2.6472365676   -1.6915653299
 H    0.4893002012   -2.8213794182    1.8562661927
 H    1.3343491088   -0.2567813596    1.9205288137