17

 C   -0.0480637317    1.5267137370    0.1104833934
 C    0.1069152993    0.0272553180   -0.0081163223
 O    1.1749477152   -0.5265673178   -0.0581188919
 C   -1.2190803157   -0.7858563597   -0.0525558345
 C   -0.9937528806   -2.1883175438   -0.6744341178
 C   -0.7590647610   -2.1188346414   -2.1104942869
 C   -0.5881237005   -2.0334131378   -3.2969232578
 C   -1.7447931097   -0.8704240245    1.3063290963
 C   -2.1472726410   -0.9454324615    2.4368158879
 H    0.9184989926    1.9882224941    0.3144445316
 H   -0.4460998584    1.9223578038   -0.8318701026
 H   -0.7661305963    1.7790554883    0.8965406986
 H   -1.9348295842   -0.2313533840   -0.6724288060
 H   -0.1348972694   -2.6454863824   -0.1738678416
 H   -1.8696167501   -2.8111482926   -0.4665028388
 H   -0.4218781880   -1.9764421450   -4.3440497116
 H   -2.5149509705   -1.0123761406    3.4310316940