20

 C    0.5557196584    1.3631939614    0.0574078844
 C   -0.0020815880   -0.0349749832    0.0217999829
 N   -0.4965947579   -0.6213787614    1.0475567755
 O   -0.4398672803    0.1829362338    2.1946253780
 C   -0.0337796124   -0.7951034046   -1.2664444114
 C   -1.0396734172   -0.2545346887   -2.2721405757
 C    1.2842325403   -1.3413394074   -1.8049878134
 C    0.2326743723   -2.2825175681   -1.2648189404
 O    0.5028181122   -2.9755996130   -0.0907960107
 H    0.9653432011    1.6481658289   -0.9124913306
 H   -0.2207609881    2.0787646015    0.3471683263
 H    1.3417665786    1.4366759799    0.8155128039
 H   -0.8371256535   -0.3826212435    2.8653065822
 H   -0.8279939372    0.7890092956   -2.5321563312
 H   -1.0091832634   -0.8361468016   -3.1983624262
 H   -2.0582942623   -0.3040765214   -1.8727975685
 H    1.4644639818   -1.2880822041   -2.8739316429
 H    2.1646785148   -1.2284368250   -1.1816373748
 H   -0.3332496476   -2.8619454415   -1.9947255009
 H    0.0112878083   -2.5252961076    0.6126981734