19

 O    0.0702719132    1.4748481926   -0.1090510315
 C    0.0547466120    0.0594666456    0.1057052341
 C   -1.3822646879   -0.4573294100    0.3096703166
 C   -1.4248928993   -1.8315037203    0.9004877651
 C   -1.4596791162   -2.9759121552    0.2034331117
 C   -1.4091102416   -3.1012674271   -1.2411928523
 C   -0.6210419157   -2.4442529132   -2.1197328532
 C    0.4962334589   -1.5248035057   -1.9276175107
 C    0.8195134616   -0.5915078141   -1.0137345262
 H   -0.2894934203    1.6311336400   -0.9898835392
 H    0.6057987482   -0.0667309824    1.0450593191
 H   -1.8823515314    0.2546330463    0.9730247807
 H   -1.9002529092   -0.4401987930   -0.6559727581
 H   -1.4496170792   -1.8908031404    1.9867073380
 H   -1.5884931186   -3.9082971309    0.7512456813
 H   -2.0497446675   -3.8755803715   -1.6612792499
 H   -0.7337790374   -2.7468776505   -3.1598777835
 H    1.2361637407   -1.6393276468   -2.7208670731
 H    1.7744822297   -0.0911306335   -1.1685551589