16

 O   -0.1774886598    0.1369176428   -0.6367421206
 C   -0.0500436821    1.2178055507   -0.1159690920
 C    1.2412523287    1.9247356590    0.0323519463
 C    1.2490441777    3.4518752591    0.0038371786
 C    1.5697072975    2.7517158492    1.2767139867
 C    0.6410088416    2.8188123447    2.4849001712
 C    0.9685468484    3.9429891886    3.3565356571
 C    1.2606243461    4.8708179043    4.0619865218
 H   -0.9367076600    1.7676652975    0.2774911060
 H    2.0714636884    1.4042811477   -0.4326491660
 H    2.0389303370    3.9344806844   -0.5593756786
 H    0.2816805700    3.9400866132   -0.0715738451
 H    2.6196699854    2.7151660561    1.5506880203
 H   -0.4030608402    2.9045107367    2.1628644940
 H    0.7076033462    1.8829682499    3.0546510814
 H    1.5080356050    5.6897482960    4.6909972290