18

 C   -0.0762514432   -1.2974508336   -0.2072450545
 C   -0.0210064911   -0.1025178422   -0.0804224659
 C    0.0054802594    1.3387319114    0.0724572270
 C   -0.2148986534    2.0357288189    1.4184679377
 C    1.0974713245    1.8409198358    2.3039937771
 C    1.3144371197    3.3757511166    2.2123428009
 C    0.6404605143    3.1985991393    0.8529581871
 N    1.3546829879    2.0710035936    0.0331243056
 C    2.0451241965    1.3910984014    1.1761972273
 H   -0.1190406344   -2.3523600263   -0.3226938063
 H   -0.6309075358    1.7973902316   -0.6924216958
 H   -1.1769082671    2.1453990607    1.9190746859
 H    1.0883945008    1.3068875505    3.2523717118
 H    0.6547393300    3.9398807835    2.8781759051
 H    2.3353217979    3.7628986086    2.2787950934
 H    0.2719148581    4.0041966550    0.2205437319
 H    3.0597780742    1.7799126567    1.2931805354
 H    2.0941618715    0.3155463785    1.0042854361