20

 C    0.0456440262    1.5350191758   -0.0319739218
 C   -0.0459776909    0.0211139106    0.0120009974
 C   -0.9080922153   -0.6165775409    1.0944295370
 C    0.5935051251   -0.7340288105    1.1648812135
 N    1.3452288546   -1.9500316673    0.9471649793
 C    0.6838126340   -3.2165721444    0.6839469388
 C    1.4092078296   -2.5003779796   -0.4152013420
 C    0.6765557932   -1.8115926434   -1.4970891502
 C    0.0221484187   -0.6623001417   -1.3018244520
 H    0.9850663742    1.8637514272   -0.4895897086
 H   -0.7785599684    1.9597885954   -0.6175632787
 H   -0.0071061427    1.9645723552    0.9729655339
 H   -1.3878582458    0.0414243168    1.8126695117
 H   -1.4992778994   -1.4821483745    0.8201981820
 H    1.0729789890   -0.1131825940    1.9163830592
 H    1.1404761439   -4.0829315899    1.1564884501
 H   -0.4007267329   -3.2494267775    0.6241691344
 H    2.3905487987   -2.8827281878   -0.6949212342
 H    0.7330475885   -2.2526288864   -2.4883636524
 H   -0.4696849001   -0.1681749330   -2.1366809776