19

 C   -0.1894712518    1.5750114041    0.0160978915
 C    0.0388075718    0.0533336281    0.0393919442
 C    0.7590220477   -0.4554967312   -1.1726095457
 C    2.0233261231   -0.9057752267   -1.3002438961
 N    3.0010764663   -1.0991300784   -0.3513177480
 C    2.2605180864   -1.3146644662   -2.7305045258
 O    1.0381145631   -1.0370453143   -3.3995678724
 C    0.1257972141   -0.5364802576   -2.4870049253
 N   -1.0639798693   -0.2098235320   -2.7822648046
 H    0.7609621651    2.1184607177   -0.0140692348
 H   -0.7696082895    1.8503877307   -0.8675876919
 H   -0.7386224629    1.8991025413    0.9058643502
 H    0.5861783244   -0.2298100133    0.9476787505
 H   -0.9350600982   -0.4463212148    0.0977704512
 H    2.8769068499   -0.6031247960    0.5187835804
 H    3.9549897659   -1.0676010962   -0.6792243282
 H    3.0748469198   -0.7453543411   -3.2020943565
 H    2.4993954994   -2.3832228876   -2.8199974276
 H   -1.2462829453   -0.3714829066   -3.7728854111