13

 C   -0.0328647524    1.5265020829    0.1792988679
 N    1.3094694046    1.9427225650   -0.3187233703
 C    2.1947678551    0.7517824434   -0.5272876376
 C    1.2326690285   -0.3841224010   -0.3731624195
 C    0.0018029216    0.0388136105    0.0162725112
 O   -0.8202013755   -0.9488501022    0.2126902336
 N    0.0716690220   -2.1954292107   -0.1214790370
 N    1.1863091764   -1.7451345021   -0.4208071981
 H   -0.1696264889    1.7997749720    1.2345610332
 H   -0.8365887304    2.0097020611   -0.3856636346
 H    1.1912854028    2.4138535644   -1.2054559632
 H    2.6780165706    0.8023300842   -1.5084255624
 H    2.9920518856    0.7282856724    0.2269112367