19

 C   -0.5375335223    1.3141094280    0.1263822456
 C    0.4400309929    0.1529579038   -0.1317740493
 C    1.0313364962   -0.3871401244    1.0879625241
 C    1.5140251760   -0.8129388264    2.1066448684
 C    2.0922059931   -1.3303302928    3.3226704220
 C    1.1351661151   -1.7363216776    4.4542239271
 C    1.8263494419   -2.8027492268    3.6726878528
 C    3.3702497096   -0.7823897470    3.7053601902
 C    4.4356683767   -0.3331549159    4.0348414630
 H   -0.0316561284    2.1422719287    0.6298761096
 H   -0.9499465099    1.6833272484   -0.8174851312
 H   -1.3667049783    0.9903208343    0.7614545586
 H   -0.0786123252   -0.6503510894   -0.6711649774
 H    1.2424415506    0.4911100454   -0.8001262290
 H    1.4730272439   -1.5316836551    5.4629000498
 H    0.0825493159   -1.5585066352    4.2709423447
 H    1.2544897496   -3.3669498234    2.9461226174
 H    2.6442683728   -3.3386903865    4.1387541800
 H    5.3764507100    0.0699267117    4.3165703037