19

 C   -0.0555561159    1.3851299871   -0.1659597423
 C    0.0041657544   -0.1507305420   -0.0429565231
 C    0.6696964940   -0.7938945041   -1.2608454024
 O   -0.1080596823   -0.5126857935   -2.4314938819
 C    0.5252580194   -0.0404112020   -3.5221358050
 O   -0.0416694048    0.1960998242   -4.5456382759
 C    0.7727921792   -0.5429017365    1.2212673805
 C    0.0036121587   -0.5218185413    2.5272016188
 O    1.9418247998   -0.8548993746    1.1686805206
 H    0.9530775060    1.8082790008   -0.2207745418
 H   -0.6004155977    1.6664513247   -1.0700278236
 H   -0.5665942002    1.8373680384    0.6881801272
 H   -1.0225081909   -0.5290308473    0.0373270247
 H    1.6927130995   -0.4205688329   -1.3762381943
 H    0.7209756705   -1.8805352198   -1.1440630641
 H    1.6111272524    0.1028722081   -3.3575434673
 H   -0.7137983803   -1.3515763633    2.5347209147
 H    0.6907313618   -0.6353836011    3.3663325075
 H   -0.5778163536    0.3988806752    2.6366335176