14

 O    0.0160171623   -0.0560202035    0.0030086353
 C   -0.0449410472    1.1616797280    0.0075694853
 C    1.1772109988    1.9644264071    0.0003451789
 C    2.1973290882    2.6036345055   -0.0056340015
 C   -1.3025458795    1.9033555366    0.0175144425
 C   -1.4588335778    3.2812436851    0.0219472027
 N   -2.7915216740    3.5436796454    0.0313044660
 C   -3.5085755553    2.3618806100    0.0329361471
 C   -2.6131018749    1.3290744340    0.0244778475
 H    3.1095568061    3.1487360437   -0.0105978834
 H   -0.7212906215    4.0668535526    0.0191542343
 H   -3.1967812293    4.4639829940    0.0362965113
 H   -4.5863741460    2.3715469446    0.0399590025
 H   -2.8324961399    0.2740015469    0.0232149915