21

 C   -0.1478352571    1.5319646976    0.0352039663
 C    0.0349115517    0.0123855316    0.0413390428
 C    0.6835797336   -0.4718546891   -1.2801775062
 C    0.7975075769   -1.9984545073   -1.4622906245
 C    1.8630465616   -2.6511441093   -0.6122996275
 C    1.8859463465   -2.6292447411    0.7193893127
 C    0.8402540335   -1.9437614265    1.5758530092
 C    0.8058440089   -0.4404558192    1.2851629453
 O    1.3621498500    0.3460736389    2.0163411977
 H    0.8203139505    2.0373496009   -0.0161023718
 H   -0.7491012602    1.8423474487   -0.8249813835
 H   -0.6431876877    1.8745808859    0.9469589465
 H   -0.9520946783   -0.4717292507    0.1042587396
 H    0.0754917547   -0.0677831118   -2.0985659835
 H    1.6779445166   -0.0196686000   -1.3782675210
 H   -0.1821835081   -2.4547856917   -1.2533834234
 H    1.0044148414   -2.2053075113   -2.5166789146
 H    2.6654863388   -3.1624042074   -1.1378581979
 H    2.7061946332   -3.1042124696    1.2490837537
 H   -0.1497588196   -2.3781665113    1.3828403737
 H    1.0695762032   -2.0678270071    2.6354326864