19

 C   -0.1837024103    1.6835349563    0.2620668335
 C   -0.1246982415    0.1615677929    0.4037966453
 C   -1.1508848938   -0.5502638089   -0.5016893676
 C   -1.1149672871   -2.0030136021   -0.3840992283
 C   -1.0597004937   -3.2006113444   -0.2690235575
 C   -1.0344060133   -4.6617630730   -0.1199563125
 O   -2.1125821324   -5.1469655560    0.6772595242
 C   -0.9850473117   -5.3239427519   -1.4337566198
 C   -0.9697642709   -5.8789318635   -2.4990499767
 H    0.5513653763    2.1684949780    0.9111072939
 H    0.0238843848    1.9956492045   -0.7675654974
 H   -1.1727743603    2.0701997546    0.5320817969
 H    0.8783184733   -0.2024182812    0.1550838217
 H   -0.3095762866   -0.1291826692    1.4437591162
 H   -2.1603924826   -0.1919419104   -0.2585276706
 H   -0.9751090096   -0.2645359247   -1.5476083414
 H   -0.1362166415   -4.9458382915    0.4437063761
 H   -2.9295708767   -4.8953599774    0.2310305489
 H   -0.9491572222   -6.3687467319   -3.4412239648