21

 C   -0.0599603394    1.5421665185   -0.0049983243
 C   -0.0216575086    0.0313739127    0.0435301852
 O   -1.1956458874   -0.5915760267   -0.4097819867
 C    1.2765090958   -0.7117940733   -0.1958467471
 C    0.6503389586   -0.6622239690    1.1825255778
 C    1.3421028840   -0.0914955881    2.4286350396
 C    1.2437257237   -1.5140244522    3.0545954916
 C    0.1932211552   -1.8948688503    1.9654403101
 O   -1.1428984453   -1.7232152388    2.4027377414
 H    0.8527366831    1.9798433994    0.4095677090
 H   -0.1594068496    1.8967894212   -1.0386139076
 H   -0.9153440781    1.9174490021    0.5656520096
 H   -1.2517703747   -0.4426863551   -1.3606357865
 H    1.2064116359   -1.6482432531   -0.7407612548
 H    2.1885316265   -0.1463583236   -0.3649525237
 H    2.3453803751    0.3209718530    2.2945821697
 H    0.7247933750    0.6393893224    2.9581609758
 H    2.1734187507   -2.0797661749    2.9506935729
 H    0.8930273135   -1.5817439717    4.0875108686
 H    0.3264340326   -2.8655841390    1.4691138278
 H   -1.3256623463   -2.4093109535    3.0532222315