15

 O   -0.1307431742    0.1609160801    0.6424115135
 C   -0.0688763405    1.2312723312    0.1053363067
 O   -1.1831818502    1.7973421255   -0.4325371476
 C   -1.1753274144    3.1851005102   -0.8004459180
 C   -0.2806174906    3.9869431743    0.1471835104
 C    1.1080026906    3.4052342042    0.0015343242
 C    1.7664014011    2.5843938467    1.0621927258
 N    1.1259714101    1.9435262409   -0.0833835421
 H   -0.8282333796    3.2871149720   -1.8365545951
 H   -2.2198473403    3.5023498801   -0.7544091835
 H   -0.3005491490    5.0486951759   -0.1125705835
 H   -0.6573117984    3.8833043270    1.1704567511
 H    1.7472786378    3.8857623514   -0.7365989699
 H    2.8491150078    2.5091386738    1.0920381942
 H    1.2707678198    2.4901126265    2.0247713638