17

 N   -0.2021892102   -1.2314719287   -0.0094849829
 C   -0.1239248120   -0.0785235582    0.0323802497
 C   -0.0298370475    1.3752056023    0.0294448989
 N   -0.2764809353    2.0069420912    1.4118345520
 C    1.1881186602    2.3272806584    1.3996673907
 C    2.4204553076    3.2809209703    1.3995077493
 C    2.8001381013    1.9632993708    0.5561817767
 C    2.1638494806    1.1507454949    1.6989305163
 C    1.3758859951    2.1197065371   -0.0865019276
 H   -0.7181069046    1.7521184552   -0.7310569253
 H   -0.8459050138    2.8406738180    1.2730101114
 H    2.3181186049    4.2092741234    0.8326325919
 H    2.9815244299    3.4239044374    2.3273938007
 H    3.7597889912    1.7875156469    0.0681528102
 H    2.6699662315    1.1821726114    2.6661178136
 H    1.8252876379    0.1435909813    1.4618032798
 H    1.2498324431    2.9973571383   -0.7246740953