19

 O   -0.0253381650    1.3974792985   -0.0913852620
 C   -0.0035788368   -0.0156130048    0.0029851158
 C   -1.4015998923   -0.5804626250    0.1132418625
 C   -2.2555038667   -0.1222601539    1.3093141934
 O   -3.3800305675   -1.0283270093    1.2758969941
 C   -3.1587552169   -1.8771266200    0.1431210260
 C   -3.3095108887   -1.0179237990   -1.1187486906
 O   -2.1245180609   -0.1953294667   -1.0816367763
 C   -1.6374945181   -2.0981145809    0.1646515784
 H   -0.6211495788    1.6067105752   -0.8205645102
 H    0.4979224459   -0.4715479905   -0.8645106425
 H    0.5743351930   -0.2655281214    0.8985811755
 H   -1.7317526097   -0.2173906910    2.2689631583
 H   -2.5931474304    0.9101163871    1.1847636299
 H   -3.8164869420   -2.7428853215    0.2131150861
 H   -3.3242004783   -1.6055334705   -2.0457861791
 H   -4.2075240199   -0.3934349688   -1.0699074480
 H   -1.2419464923   -2.6172226689   -0.7107915663
 H   -1.2979135245   -2.5749882685    1.0856737550