14

 N   -0.1075828709    1.5104393355   -0.1307265691
 C   -0.0223806183    0.1049372312   -0.0304973020
 C   -0.3564853834   -0.8051932296   -1.2330802992
 O    0.4815889421   -1.7671410708   -1.7678069894
 C   -1.1112779760   -0.9903802739    0.0248161840
 O   -0.2818217336   -1.7844916508    0.9199739273
 C    0.6524846554   -0.7362845297    1.0062478079
 N    1.6285298217   -0.5867904719    1.7745141195
 H   -0.1189292760    1.9450986937    0.7865421007
 H    0.6841395763    1.8888344691   -0.6406342754
 H   -0.8700196764   -0.2413614422   -2.0068334716
 H    0.6249782661   -2.4325326457   -1.0821678642
 H   -2.1736114410   -0.9636169865    0.2267461918
 H    1.7451806842   -1.3844693983    2.4010564597