21

 C   -0.2102062239    1.5241840049   -0.0813422765
 C   -0.0789894760   -0.0015780669    0.0074313471
 C    0.9056912590   -0.4148941211    1.1094549481
 C   -1.4699092631   -0.6455999352    0.2398273463
 O   -2.4680228104   -0.1514133911   -0.6474572384
 C   -2.5792057348   -1.0350484667   -1.7670478418
 C   -2.3626205978   -2.4356129095   -1.1959397948
 C   -1.4621056840   -2.1654733032    0.0113313015
 O   -0.8606631536   -2.9857101511    0.6547034881
 H    0.7608787461    1.9791036683   -0.3016675808
 H   -0.9191196780    1.8177608149   -0.8579225251
 H   -0.5646610888    1.9380013685    0.8702995213
 H    0.3051110817   -0.3686104739   -0.9555744422
 H    0.5764292225   -0.0297738371    2.0821347529
 H    0.9927538970   -1.4997818378    1.1929131094
 H    1.8975153366    0.0020631135    0.9081061727
 H   -1.7972750696   -0.4235679760    1.2635401516
 H   -3.5667448937   -0.8792982129   -2.2063652911
 H   -1.8227400645   -0.7978589446   -2.5301250317
 H   -3.3000805613   -2.8667075196   -0.8259933171
 H   -1.9049497235   -3.1561183834   -1.8765017693