17

 C   -0.4441353734   -1.2070901351   -0.6106026478
 C   -0.2632723616   -0.0558864184   -0.3145126035
 C   -0.0486085030    1.3423897320    0.0484802162
 C   -0.4758676778    1.6801505616    1.4743555005
 C    0.4429198904    2.3721043746    2.1446283888
 C    1.6865316512    2.5996634095    1.3281953563
 O    2.7903850829    1.7362294018    1.7007996442
 C    2.5120086900    0.8518733748    0.5893896512
 C    1.4346463201    1.8031590418    0.0242286462
 H   -0.6056304611   -2.2228429959   -0.8749565048
 H   -0.6276183101    1.9574729135   -0.6561614116
 H   -1.4433879393    1.3716642271    1.8538670090
 H    0.3429543503    2.7216645719    3.1658794495
 H    2.0079562414    3.6459183942    1.2775714681
 H    3.3981028337    0.7063764472   -0.0376797970
 H    2.1363468458   -0.1247229716    0.9153498098
 H    1.7096556904    2.2855554809   -0.9126489552