19

 C    0.0401984716    1.5165229169   -0.0387621784
 C   -0.0194428922    0.0257450746    0.0209867000
 C   -1.0801689690   -0.7893094417    0.1294005397
 C   -0.7155502182   -2.2456571188    0.0912151099
 C   -1.4654656128   -3.2293160766    0.9580657211
 C   -0.1276373417   -2.6629649800   -1.2404405151
 C    0.7817610444   -2.2519931598   -0.0843089866
 C    1.2233686795   -0.8084419631   -0.0648947100
 O    2.3595026864   -0.3915382608   -0.0921641599
 H    0.6904218245    1.9067602342    0.7514889536
 H    0.4772281350    1.8511036396   -0.9865734316
 H   -0.9500694869    1.9669248982    0.0657672545
 H   -2.1150535965   -0.4661470115    0.1951034930
 H   -2.5268956083   -3.2645234385    0.6863707206
 H   -1.0603425795   -4.2391463071    0.8449948377
 H   -1.3997763486   -2.9562328341    2.0166186907
 H   -0.1316499954   -3.7204603319   -1.4886031625
 H   -0.2271821333   -1.9946388785   -2.0889478140
 H    1.4274606508   -3.0026313911    0.3537749175