20

 C   -0.9090743504    1.2095151876   -0.0327201764
 C   -0.0973008365   -0.0734741774   -0.0353645896
 C    1.0971643623   -0.1965813464   -1.0361800945
 C    2.0067079377   -0.5353134480    0.1795782522
 C    3.1435973141    0.3906071721    0.6609663044
 C    2.7449682055    0.6658203053    2.1278305345
 C    1.2027438527    0.6157736965    2.0984263128
 O    0.4335528149    1.2292851477    2.8047946191
 N    0.8763548118   -0.2531335721    1.0799358470
 H   -0.2613370277    2.0913943242   -0.0443650689
 H   -1.5465823237    1.2383058522   -0.9227205162
 H   -1.5401305646    1.2722008514    0.8564429365
 H   -0.7692193297   -0.9376327424   -0.0878184941
 H    1.0072090825   -0.9674900298   -1.8032873851
 H    1.3488340919    0.7563593295   -1.5103248354
 H    2.3095646895   -1.5893187982    0.2096591408
 H    4.1349824104   -0.0550934439    0.5531601996
 H    3.1345672104    1.3261241081    0.0905077367
 H    3.1233796074   -0.1122230405    2.8010064094
 H    3.0752542914    1.6302009041    2.5157461173