16

 C    0.0814939789    1.6391437602   -0.0602824388
 C    0.0883698606    0.1180668311   -0.0073253875
 C    0.6769456991   -0.7142106139   -1.1887682068
 C    1.4279732950   -1.6514299967   -0.1781909790
 C    2.7959139173   -2.0384597507   -0.4251724300
 C    3.9455427120   -2.3270314903   -0.6268498144
 C    1.1280123827   -0.5602417198    0.8991204492
 O    1.6202404523   -0.2825535297    1.9492537189
 H    1.0681903303    2.0259576269   -0.3340679405
 H   -0.6432030853    2.0049384439   -0.7942169874
 H   -0.1811113404    2.0554179533    0.9165674945
 H   -0.9063484151   -0.2606182163    0.2626571833
 H   -0.0354877221   -1.2050133350   -1.8517905210
 H    1.3849731025   -0.1320840059   -1.7821240779
 H    0.8095763127   -2.5290899592    0.0508984207
 H    4.9599554693   -2.5882608881   -0.8003930434