17

 C    0.0947680655    1.5682329016    0.1744505769
 C   -0.0361373688    0.0462179122    0.1497026494
 C   -1.4317128697   -0.4828273174   -0.0818138457
 N   -2.3758438087    0.3792581326   -0.2358675937
 O   -3.6710331839   -0.1046493309   -0.4507536829
 C   -3.9894232508   -1.4521498730   -0.5062096286
 N   -5.1865564240   -1.8287677188   -0.7045062367
 C   -2.8908881392   -2.3829469326   -0.3267338449
 C   -1.6513065532   -1.9179873959   -0.1210984421
 H    1.1368538792    1.8509722348    0.3470750953
 H   -0.2328817908    2.0072938109   -0.7708450785
 H   -0.5196253158    2.0037139190    0.9660248444
 H    0.6129711115   -0.3794548898   -0.6284781273
 H    0.3286286825   -0.3829941177    1.0935397770
 H   -5.8058105001   -1.0226828038   -0.8050229673
 H   -3.1400147460   -3.4358706018   -0.3700639172
 H   -0.8039735178   -2.5809121694    0.0173999222