21

 C    0.0199475306    1.5695034376   -0.1111328800
 C    1.5388288638    1.8498513480   -0.0230289206
 C    2.0179375525    1.9895088526    1.4418354048
 C    1.7550184571    0.7588142702    2.3300134755
 C    0.2974427183    0.2776978450    2.4093287984
 O   -0.1931850764   -0.4917257554    1.3207575155
 C   -0.0798073437    0.0351447842   -0.0082309493
 C    1.2269831442   -0.3981216421   -0.6567650465
 C    2.1061918055    0.6021415596   -0.6727310679
 H   -0.5781861280    2.0959212581    0.6365528589
 H   -0.3484860663    1.8677175849   -1.0973481410
 H    1.8117140375    2.7629062857   -0.5638897113
 H    3.0932549498    2.2079338848    1.4556922200
 H    1.5218578786    2.8653281249    1.8808164734
 H    2.3817258862   -0.0819748542    2.0150323721
 H    2.0632733427    1.0118149371    3.3526305753
 H    0.1948679658   -0.3950030783    3.2673073983
 H   -0.3613995120    1.1398301724    2.6050924317
 H   -0.9599066757   -0.3560296505   -0.5288432264
 H    1.4034866599   -1.4167626802   -0.9819445401
 H    3.1326172796    0.5397954054   -1.0196076709