19

 C   -0.1431918828    1.4432919467   -0.2935469751
 O    1.2142951873    1.6091514715    0.1731496354
 C    1.3571958776    0.1964368493    0.4356571283
 C   -0.0570357899   -0.0632300304   -0.0722078704
 C   -1.0586099245   -1.0615141666    0.4602607613
 C   -2.5366699366   -0.7411755936    0.2991160981
 C   -2.6471597610   -0.3292432106   -1.1871450358
 O   -1.5459927795   -0.9291053840   -1.8754431780
 C   -0.5278047441   -1.1875569138   -0.9447288524
 H   -0.8624713955    1.9845047055    0.3364230527
 H   -0.2621026716    1.7638309971   -1.3362129545
 H    2.1726341321   -0.2516233441   -0.1481163219
 H    1.5254495717   -0.0076799329    1.5021250553
 H   -0.7490921911   -1.7331516588    1.2543125116
 H   -3.1241302944   -1.6414626391    0.5057536603
 H   -2.8964234083    0.0521086126    0.9613184276
 H   -3.5683074050   -0.6723679263   -1.6660582159
 H   -2.6022673841    0.7635540492   -1.2891254093
 H    0.1528348597   -1.9623313415   -1.2814883672