18

 C   -0.2576221806    1.5458770611   -0.4240230665
 C    0.1861206467    0.1267773497   -0.0635638133
 N    0.6772964788   -0.6615806619   -1.1813576831
 C    0.1859221853   -0.7893073513   -2.5521744748
 C    0.9465317681    0.0714438616   -3.5160915117
 O    1.3830132695    1.3415882167   -3.1535565569
 C    1.5924712803   -1.2039517704   -2.9947597097
 C    1.9814288407   -0.9753147886   -1.5263692600
 O    2.9985106746   -1.0100989875   -0.8873635632
 H    0.5603641830    2.1129771787   -0.8701989231
 H   -1.0837793004    1.5313312993   -1.1423533012
 H   -0.6065180795    2.0621615180    0.4758356234
 H    1.0103395420    0.1491375907    0.6566386059
 H   -0.6413901495   -0.4123473599    0.4155113723
 H   -0.7598022383   -1.2703229437   -2.7680506998
 H    0.6032512228   -0.0115170673   -4.5502981605
 H    2.3122626611    1.4231776528   -3.3936428287
 H    1.9053582453   -2.0196455681   -3.6309730491