19

 O    0.1298204465    1.3586021619    0.2533277705
 C    0.0177677730   -0.0191952360   -0.0510548169
 C   -1.4046394572   -0.5042573272   -0.0490534729
 C   -1.9270806190   -1.6604569890   -0.8647273026
 C   -2.5609675488   -0.3101320130   -1.0442069530
 C   -3.5457426403   -0.0347738309    0.1062560781
 C   -2.3753847569   -0.2357853527    1.0843487949
 C   -2.3079641303   -0.5966251652    2.5012478254
 O   -2.0689283367    0.7576234570    2.0639937656
 H   -0.3496901888    1.4949882037    1.0808849373
 H    0.4573797129   -0.1620242993   -1.0448773907
 H    0.6131914327   -0.6323673030    0.6488298498
 H   -1.2710322023   -1.9808096495   -1.6688279637
 H   -2.4756484910   -2.4726610315   -0.3922825828
 H   -2.5466649376    0.2130707322   -1.9916452953
 H   -3.8925132184    1.0006012058    0.1421229715
 H   -4.4030895482   -0.7101350534    0.1921409151
 H   -3.2239279252   -0.7314307747    3.0741452907
 H   -1.4362458945   -1.1212280450    2.8895189289