20

 C   -0.0700781804    1.6099967210    0.0933487467
 C    0.0299682311    0.1004016926    0.0836373230
 N    1.2836051196   -0.6259715063   -0.1706339386
 C    2.5179312735    0.1052791006   -0.4147770953
 C    0.7215656940   -0.6524824540    1.1657725907
 C    1.3295432548   -0.0693258796    2.4619106493
 C    0.7965531198   -1.3245298002    3.1848720221
 O    0.7706532110   -1.6614369010    4.3317936606
 C    0.2854472302   -1.9479867454    1.8739145079
 H    0.7385075429    2.0846795057    0.6538476459
 H   -0.0558453491    2.0108468537   -0.9261004230
 H   -1.0158090470    1.9164175233    0.5530531473
 H   -0.8262886020   -0.3870319799   -0.3843544463
 H    2.6697624575    0.9925987223    0.2174279238
 H    3.3642566402   -0.5701905157   -0.2523924329
 H    2.5432257516    0.4244564959   -1.4613758619
 H    2.4235963267   -0.0062182859    2.4746653235
 H    0.9270926562    0.8784158603    2.8324295746
 H   -0.7821387995   -2.1885287027    1.8622191237
 H    0.8476372192   -2.8367953248    1.5671943588