19

 C    0.2418055913    1.3206103672    0.1556552739
 O   -0.1807309719    0.0255493371   -0.1968208086
 C    0.6969123619   -0.6105058224   -1.0979764966
 C    0.1594557375   -2.0110929970   -1.3770789321
 C    1.0073565056   -2.7411858806   -2.3854064727
 O    2.2918582389   -3.1957023660   -1.9550447863
 C    1.3094696066   -4.1882731143   -2.2971938966
 C    0.8052634541   -5.0230961771   -1.2400699020
 C    0.3793091533   -5.7517415810   -0.3841055105
 H    1.2283309386    1.3099685074    0.6457143429
 H    0.3040442894    1.9841922669   -0.7219154990
 H   -0.4945889720    1.7271158431    0.8531679613
 H    0.7732048201   -0.0307094149   -2.0354662894
 H    1.7127069089   -0.6764179700   -0.6750822317
 H    0.1183825686   -2.5779566493   -0.4434300492
 H   -0.8649801813   -1.9296513438   -1.7598356689
 H    1.0137351243   -2.3147561060   -3.3914881696
 H    1.5230519833   -4.7133136357   -3.2282101366
 H    0.0064112529   -6.3897189436    0.3789026418