23

 C   -0.1488374111    1.3555413468    0.0352110844
 O    0.0260942859   -0.0408918147   -0.0144379254
 C    0.7261427156   -0.5638272408    1.1008444915
 C    0.7107122489   -2.0834724588    0.9726843667
 O   -0.6497284738   -2.5189260656    0.9032316430
 C    1.4985127891   -2.6174663680   -0.2455684866
 C    1.7792221185   -4.0760110652    0.1380127052
 C    2.1961225736   -3.9699515884    1.6174642132
 C    1.3513266249   -2.7993547494    2.1877684997
 H    0.8162646054    1.8851639956    0.0369906196
 H   -0.7101583075    1.6484319300   -0.8554264123
 H   -0.7113584875    1.6635160648    0.9302120788
 H    1.7594010200   -0.1810304451    1.1265936788
 H    0.2266158187   -0.2637216086    2.0365292181
 H   -1.0719617356   -1.9424894047    0.2535571745
 H    0.9392521132   -2.4951043269   -1.1761361930
 H    2.4427041155   -2.0663122369   -0.3484932468
 H    0.8537428441   -4.6540924037    0.0473212819
 H    2.5372798709   -4.5542011093   -0.4884585658
 H    2.0452030731   -4.9013568344    2.1694400067
 H    3.2636131537   -3.7308452061    1.6837204439
 H    1.9666496940   -2.1095684354    2.7746093050
 H    0.5438095704   -3.1467573553    2.8359543087