21

 C   -0.0050428459    1.5014431885    0.0003774728
 C   -0.0001754107   -0.0081590869   -0.0647427051
 C    0.8296859068   -0.7188311132   -1.1518957985
 C    0.6851912550   -2.1356970584   -0.5487719006
 C    1.3377750588   -1.9139152058    0.8383946971
 C    0.3427094451   -0.8276861676    1.2771868253
 C   -1.0310260140   -1.5130249809    1.1543065784
 C   -0.8340446699   -2.1886971052   -0.1952397928
 C   -1.3500078251   -0.7625556476   -0.1108032430
 H    1.0027690115    1.8947893549    0.1755336981
 H   -0.3734477924    1.9372877910   -0.9360612908
 H   -0.6498042752    1.8627669507    0.8091603445
 H    0.3690834915   -0.6168150144   -2.1404563372
 H    1.8726127757   -0.3867880138   -1.2088949520
 H    1.0582340020   -2.9688624605   -1.1440091136
 H    1.2935963868   -2.7954504507    1.4862305353
 H    2.3769805267   -1.5753043881    0.7667232429
 H    0.5606027959   -0.2430055007    2.1698940452
 H   -1.6797355596   -1.8784346085    1.9409967524
 H   -1.4819305411   -2.9961282754   -0.5096502184
 H   -2.2964373319   -0.4141665576   -0.5083366799