19

 C   -0.0560251296    1.6663578906   -0.0705140632
 C   -0.3073069406    0.1635345891   -0.2303859783
 C    0.6833701326   -0.4978950518   -1.1818791617
 C    2.1773519163   -0.6634885161   -0.7375835185
 C    2.0747778285   -2.1803916458   -0.9860855558
 O    1.6684274111   -2.9013256672    0.2222342391
 C    0.3360299157   -2.8408543961   -0.1318358112
 O   -0.5887213085   -3.2927532279    0.4629192250
 C    0.5922115104   -2.0491727564   -1.4100080705
 H    0.9469024931    1.8640197698    0.3232671096
 H   -0.1437372319    2.1878271781   -1.0302710703
 H   -0.7766628337    2.1145787374    0.6195966463
 H   -0.2601120918   -0.3258008139    0.7500514646
 H   -1.3256193519   -0.0044706703   -0.6030122224
 H    0.6384735332   -0.0004160869   -2.1558104473
 H    2.8929501330   -0.1529299768   -1.3855434147
 H    2.3993411585   -0.4144408464    0.3027263099
 H    2.8487684903   -2.7223665524   -1.5261699910
 H    0.1449828855   -2.4226778871   -2.3288408996