18

 O   -0.2746427035    1.3854771723   -0.3261183872
 C   -0.1251639431    0.0059967636   -0.1776332485
 C   -0.2162592385   -0.6227280321    1.2025419685
 C   -1.3453350768   -0.7817037034    0.2185313618
 C   -2.7112538567   -0.1184121926    0.3978215159
 C   -3.5950210070   -0.8170516161   -0.6526127516
 C   -2.8882170685   -2.1458808981   -0.9446197599
 O   -3.3205363110   -3.0982518690   -1.5539436864
 N   -1.6365341140   -2.0492941129   -0.3885758633
 H    0.4965457773    1.8163879024    0.0577551064
 H    0.5518807946   -0.4667040310   -0.8911519127
 H    0.4169862325   -1.4768302855    1.4228669503
 H   -0.3884931987    0.0448485629    2.0416063051
 H   -3.0874842749   -0.3202224255    1.4058481033
 H   -2.6425134070    0.9617834309    0.2682206489
 H   -4.6210022956   -0.9962304240   -0.3273307285
 H   -3.6430660175   -0.2537496899   -1.5910794284
 H   -0.9536395917   -2.7761835920   -0.5318349438