21

 C    0.0264833224    1.5398820238   -0.1668132265
 C   -0.1294252883    0.0347536432   -0.2046409115
 C   -0.1196335504   -0.7671302958    1.0704069953
 C   -1.3997888014   -0.6138320067    0.2868482921
 C    1.4775034667    2.0083539002   -0.0766655297
 C    1.6527916811    3.5387949434   -0.1374374073
 O    2.7293574217    3.7888832369    0.7515848333
 C    2.5551052762    2.8474386525    1.7782518999
 O    2.0681035012    1.6609758772    1.1842214974
 H   -0.4188553470    1.9808612019   -1.0706688062
 H   -0.5251591873    1.9516382858    0.6880437494
 H    0.3400019906   -0.4370449931   -1.0650149840
 H    0.3735506037   -1.7327499025    1.0683601524
 H   -0.0184078240   -0.2207523766    2.0009090271
 H   -2.1719585416    0.0310940613    0.6944341852
 H   -1.7828622605   -1.4731621226   -0.2525415969
 H    2.0711819052    1.5260745032   -0.8660566108
 H    1.9249177235    3.9119398880   -1.1266360901
 H    0.7359778454    4.0497776570    0.1996640834
 H    3.5233307410    2.6568383321    2.2524296348
 H    1.8336694716    3.2173094208    2.5305609029