23

 C   -0.0042245372    1.4195044282    0.1568322925
 C   -0.0342673854   -0.0992778632    0.1860287746
 O   -1.3640645393   -0.5289812140   -0.0231134276
 C   -1.5113366482   -1.9316270208   -0.0099024724
 C   -2.9877374513   -2.2722101056   -0.1845246933
 C   -3.2165763007   -3.8090648206   -0.1981046044
 C   -4.0550970736   -4.0644444680    1.0752879727
 O   -3.8495790926   -2.9344244761    1.9077411659
 C   -3.8197828514   -1.8167111379    1.0326195652
 H    1.0149521460    1.7843990697    0.3155344195
 H   -0.3605432825    1.7917961492   -0.8078915765
 H   -0.6465292026    1.8310068310    0.9406697392
 H    0.6259318565   -0.5142210147   -0.5947690218
 H    0.3389123353   -0.4759976438    1.1535080925
 H   -0.9148179215   -2.3896371204   -0.8176667740
 H   -1.1474433124   -2.3517938989    0.9441778731
 H   -3.3430711520   -1.7956312807   -1.1022365817
 H   -3.7332391765   -4.1455459572   -1.0998507778
 H   -2.2615075058   -4.3421221886   -0.1514355252
 H   -5.1229994211   -4.1623043651    0.8189869072
 H   -3.7543399977   -4.9548351759    1.6331962761
 H   -3.3729480371   -0.9728876797    1.5618474136
 H   -4.8413948589   -1.5399695070    0.7241406028