20

 C   -0.1359923589    1.5403206234   -0.0049288080
 C    0.0215432639    0.0174504135    0.0236908648
 C    0.7695754637   -0.4621177400   -1.2167646316
 O    1.0485320524   -1.8727960834   -1.2446563922
 C    1.3343505464   -2.5662855436   -0.1179523674
 O    1.8707453278   -3.6389393966   -0.2085890508
 C    0.8561385564   -2.0082124160    1.2374963656
 N    1.6156401098   -2.5256987762    2.3679927319
 C    0.7693753165   -0.4822528316    1.2617822940
 H    0.8401392268    2.0384773385    0.0070974610
 H   -0.6704939083    1.8716101646   -0.9013188247
 H   -0.6976880621    1.8874719514    0.8672183359
 H   -0.9779346438   -0.4393622857    0.0157411686
 H    0.1982756567   -0.2674639917   -2.1283158521
 H    1.7276230370    0.0698186479   -1.3023351923
 H   -0.1706039232   -2.3965133873    1.3295263673
 H    1.7492738081   -3.5240202658    2.2231898530
 H    2.5530930933   -2.1297148156    2.3449604236
 H    1.7821527625   -0.0521408914    1.2757526432
 H    0.2786313750   -0.1638133844    2.1865116201