19

 C   -0.1689438386    1.5924506473   -0.0469408406
 C    0.0526633914    0.1020845091    0.0374792907
 O   -1.1542540054   -0.5909907938   -0.2586773715
 C    1.2163414655   -0.7606342944   -0.4180460301
 C    2.6769475775   -0.4724690970    0.0284724690
 C    2.9976954027    0.6576753536    0.9388352208
 O    2.6550772458    2.0025470428    0.7602026354
 C    2.2064232544   -0.4766745383    1.5167794121
 C    0.7596538239   -0.7686101795    1.0422985690
 H    0.7342145471    2.1640789116    0.1338284995
 H   -0.5334591150    1.8414767684   -1.0530041028
 H   -0.9471853513    1.8832351959    0.6668084390
 H   -1.4218478886   -0.3226494848   -1.1446349857
 H    1.0282395896   -1.5387604258   -1.1473221664
 H    3.4795806234   -1.0514045619   -0.4149750305
 H    4.0366098346    0.5539696242    1.2669960396
 H    2.5776196840    2.4000313433    1.6349410670
 H    2.6138908113   -1.0556443898    2.3384712009
 H    0.1849908877   -1.5462222710    1.5291563747