20

 C   -0.1028328853    1.4882700250   -0.0764431400
 N   -0.0320113627    0.0472854229    0.0682354884
 C   -1.2432321986   -0.6432718316    0.6299478815
 C   -0.2769950371   -1.5149750090    1.3933125732
 C    0.1750650055   -2.7360659764    1.6403859178
 C    1.7065635085   -2.6958328218    1.7216564135
 O    2.3246843342   -3.8380655467    1.1550133882
 C    2.0684249463   -1.3528472153    0.9923563208
 C    0.8036768963   -0.5001501519    1.1854887460
 H    0.8729753870    1.8725888608   -0.3908657745
 H   -0.8310821145    1.7491925025   -0.8515993155
 H   -0.3940146127    2.0087486671    0.8558251722
 H   -1.8457159179    0.0206205719    1.2716540686
 H   -1.8970785346   -1.1182828328   -0.1082427238
 H   -0.3712202279   -3.6704130801    1.6947056188
 H    2.0675093518   -2.6864166933    2.7578722414
 H    2.0160589672   -3.9089976992    0.2442252143
 H    2.9939589621   -0.9054304851    1.3642501683
 H    2.1938597358   -1.5711386552   -0.0743269507
 H    0.9096022166    0.2335624582    2.0020942815