19

 C   -0.2782653990    1.1657842586    0.2278142812
 O   -0.3613591522   -0.1717527559   -0.2133376014
 C    0.6432676498   -0.5595147469   -1.1458632589
 C    2.0037330543   -0.7797285940   -0.4859001604
 C    0.1052175873   -1.8367998830   -1.8063690551
 C   -1.2483022378   -1.5421467117   -2.4172909951
 O   -1.4213333693   -0.8298306551   -3.3792272060
 C   -2.4832959996   -2.1800015459   -1.7672764186
 O   -2.4312218745   -3.0205517464   -0.9096140461
 H    0.6195469446    1.3545515037    0.8327644431
 H   -0.2832366468    1.8711838089   -0.6170215148
 H   -1.1577864668    1.3517577616    0.8487740515
 H    0.7279857785    0.2159442855   -1.9242541899
 H    1.9288986995   -1.5438862772    0.2938464068
 H    2.7393447096   -1.1076802114   -1.2269337090
 H    2.3809500171    0.1406600253   -0.0314808814
 H    0.7890482665   -2.1551829907   -2.5988756904
 H    0.0118600212   -2.6325859298   -1.0634775751
 H   -3.4336115024   -1.8006917257   -2.1992316003