15

 N   -0.1310276446   -1.0508011111   -0.4586194708
 C    0.1341303812    0.0705989376   -0.5419712268
 C    0.4766814930    1.4884318168   -0.6180486278
 C    0.9576490036    2.0378006746    0.7507330304
 C    1.2979281170    3.4518213646    0.6693845649
 C    1.5701975496    4.6182582209    0.5685417147
 C    1.9051846711    6.0366729591    0.4616201220
 C    1.7030949985    6.5681918832   -0.8928878622
 N    1.5467876880    6.9931632391   -1.9547927652
 H    1.2584469578    1.6288133580   -1.3709779775
 H   -0.3980983587    2.0511754250   -0.9584112677
 H    0.1716863142    1.8802209069    1.4976815241
 H    1.8252465527    1.4586042630    1.0858549898
 H    1.2978305489    6.6295549557    1.1574947959
 H    2.9515178177    6.2079367066    0.7453192363