16

 C    0.0007099413    1.5667703372    0.0104305022
 O    1.4316655660    1.5307300044    0.1678297260
 C    1.4130187562    0.1073292280    0.3853853771
 C   -0.0910518342    0.0179482168    0.0149226446
 C   -1.0267374047   -0.6440645608    0.9632381156
 N   -1.0678198212   -0.3513935216    2.2576622676
 N   -2.0394314606   -1.1762626770    2.7100156285
 C   -2.5346973043   -1.9155797131    1.6989749499
 N   -1.9187608347   -1.6076770166    0.5751499538
 H   -0.4967183527    2.0396646371    0.8660896180
 H   -0.3013935308    2.0693044519   -0.9153401709
 H    2.1090691963   -0.4215462556   -0.2754268699
 H    1.6250538198   -0.1533318439    1.4295282475
 H   -0.2583025702   -0.3987118322   -0.9780541869
 H   -2.2908835311   -1.1688003759    3.6850185675
 H   -3.3208300851   -2.6445590787    1.8262992394