16

 N    0.3564188337    1.1517174564    0.0264218633
 C    0.1682504980   -0.0839375271    0.1056326064
 O    1.0485535139   -1.1278282100    0.3860671493
 C    0.0062024295   -2.0874664718    0.0604604335
 C   -1.1068841086   -1.9485075453    1.0333942916
 C   -1.0030633553   -0.9785635957   -0.1551463770
 C   -2.0947691721   -0.7301979171   -1.1602149010
 C   -3.0955436452    0.2998148056   -0.6528667753
 O   -4.2873517332    0.1345015938   -0.6523852272
 H    1.3244194283    1.4033382919    0.2318415465
 H    0.2865261136   -2.9439495827   -0.5366848983
 H   -1.9176266233   -2.6650895730    0.9370649465
 H   -0.8960827001   -1.6168212315    2.0451220206
 H   -1.6520264030   -0.3320891656   -2.0837891245
 H   -2.6361780297   -1.6481527183   -1.4050760335
 H   -2.6332306664    1.2380982605   -0.2782349309