20

 C   -0.1111003398    1.5808051235    0.0418345687
 C   -0.0289080111    0.0530504289   -0.0168704779
 C    0.7186136452   -0.4852341427   -1.2513584295
 N    2.1051547744   -0.0308163421   -1.2468725893
 C    2.9345367014   -0.6298904504   -2.2871230501
 C    2.9648636753   -2.1488131826   -2.1448846926
 O    3.9179864610   -2.8099690358   -2.5017852337
 C    1.7191537440   -2.7500458611   -1.6322278905
 C    0.6765986625   -1.9880042200   -1.2826760562
 H    0.8770324862    2.0370616389    0.1605816705
 H   -0.5701234889    1.9913888267   -0.8649841815
 H   -0.7162198732    1.9027871636    0.8943724372
 H    0.4702965895   -0.3299088087    0.8802303157
 H   -1.0432962187   -0.3641320460   -0.0258204306
 H    0.1649254625   -0.1317321579   -2.1506617540
 H    2.1378099673    0.9788130769   -1.3212593748
 H    2.5861292769   -0.4136449254   -3.3180683126
 H    3.9583823751   -0.2568186860   -2.2066676242
 H    1.6769575825   -3.8345923998   -1.6171073593
 H   -0.2666556122   -2.4451627001   -0.9916331152