15

 C   -0.4316186928   -1.1684836617    0.1240591163
 C   -0.2273063934    0.0160656001    0.1029912717
 C   -0.0389402897    1.4373816010    0.0819139384
 C    0.5183961094    2.2045749357    1.2220204020
 C    1.5589692805    1.3900648204    1.9849803471
 C    2.3499295181    1.3518324265    0.6430588844
 C    2.7973301441    0.0851427408    0.0747548837
 N    3.2191088487   -0.8993214122   -0.3596988881
 N    1.2784192039    2.1283778623   -0.0922293401
 H   -0.5807996418   -2.2203747293    0.1247202227
 H   -0.7818326275    1.9749332402   -0.5024659407
 H    0.0667851080    3.1301313472    1.5622832646
 H    2.0858409419    1.9417703747    2.7630282408
 H    1.2108688698    0.4340605346    2.3793357625
 H    3.2206046906    2.0109160199    0.6905970048