18

 N    0.1202327034    1.4005818266    0.0160168641
 C   -0.0057968291   -0.0351038715   -0.0187490995
 C   -0.4789898153   -0.8180316393   -1.2236300982
 C   -1.3306548899   -0.7445942380    0.0262811923
 C   -1.2018272297   -1.9000233962    1.0256861877
 N    0.0367978368   -1.6704942106    1.8037911459
 C    0.9025913037   -0.7972111849    0.9849246329
 C    1.9516950589   -1.5874053253    0.3151081284
 N    2.7757508371   -2.1884971944   -0.2283154029
 H    0.8266075303    1.7143006976   -0.6445176724
 H   -0.7501326148    1.8413269268   -0.2625712890
 H   -0.8008402451   -0.2407203387   -2.0848381732
 H    0.0044348172   -1.7594625145   -1.4691906703
 H   -2.2565385545   -0.1791460152   -0.0075711648
 H   -2.0563800636   -1.9588896551    1.7044209145
 H   -1.1328271111   -2.8626758681    0.5057013616
 H   -0.2014271163   -1.1506799098    2.6407301490
 H    1.4000278720   -0.0601786392    1.6203965539