17

 C   -0.0349321664    1.5186970912   -0.0566427874
 N    1.4751108203    1.5509265044    0.0257774596
 C    1.5265578260    0.0711133135   -0.0383459625
 C    1.5555626157   -0.7366019173    1.2887234794
 N    0.0553596419   -0.6967704690    1.3236909794
 C    0.0077417995   -0.0385205055    0.0067122462
 C    0.0568067225   -0.8861705136   -1.2794584463
 O    0.6943995023   -0.0821479779   -2.2734037583
 C    1.5425090166   -0.7521603882   -1.3376791935
 H   -0.5077830271    1.9935865426    0.8067211452
 H   -0.4468470137    1.9226290793   -0.9856125863
 H    1.9133188253    2.0101597450   -0.7651709273
 H    1.9997859521   -1.7368367380    1.2133406044
 H    2.0093762423   -0.2053746142    2.1298305290
 H   -0.4120168093   -1.5937302122    1.3866984674
 H   -0.6060625198   -1.6694901127   -1.6345635176
 H    2.3072951219   -1.4015940473   -1.7525894013