16

 C   -0.0293864550    1.4307790971    0.3308443289
 C    0.0254700721   -0.0170047950   -0.1014556929
 O    1.0374309281   -0.5553768792   -0.4882916427
 C   -1.2695453063   -0.7993401555   -0.0189823525
 O   -2.4354517614   -0.0738733215    0.2289709185
 C   -1.3543176267   -2.0908223503   -0.7878340668
 C   -1.2352075541   -2.1444385279    0.7190374379
 C   -0.0527308751   -2.6381271833    1.3666035055
 N    0.8672068133   -3.0621281512    1.9240504794
 H    0.9764478179    1.8499457243    0.3067432741
 H   -0.6845218607    2.0050809750   -0.3334946823
 H   -0.4582932193    1.5148381043    1.3341382400
 H   -2.7707004259    0.2626427775   -0.6096389377
 H   -2.3167317566   -2.3598237868   -1.2066596695
 H   -0.4736500260   -2.3566643257   -1.3595724540
 H   -2.1548768343   -2.3365840618    1.2615594539