18

 C   -0.1022099171    1.4218899487    0.0874695359
 N   -0.0653469244   -0.0320206949    0.0503100878
 C    0.6100062896   -0.6537195993    0.9093853879
 O    1.3382087178   -0.0757299389    1.9364805621
 C    2.1259238113   -1.0974129809    2.5295074742
 C    1.4576802710   -2.3317956809    3.1017242877
 C    0.0878748141   -2.5236650196    2.4568271306
 C    0.7296417229   -2.1464853545    1.0703686294
 C    2.1307967855   -2.3418204617    1.7196114664
 H    0.7086469798    1.8737837540    0.6705427168
 H   -0.0625104049    1.8030937436   -0.9378925775
 H   -1.0564185415    1.7544763444    0.5148397565
 H    3.0168201619   -0.7096653806    3.0051979915
 H    1.7990183805   -2.7700440544    4.0325843156
 H   -0.2073285428   -3.5749982546    2.4643893910
 H   -0.7457225378   -1.9073730876    2.8081906598
 H    0.4280484498   -2.7163852416    0.1974069062
 H    2.9914805844   -2.8663020110    1.3275990581