18

 C   -0.1176251492    1.5625894626    0.0036131101
 C    1.4193590345    1.2590039887    0.0091318614
 C    1.2376593311    0.0021777719    0.8979487870
 N    1.9753430419   -0.9302391875   -0.0271893906
 C    1.2531426355   -2.2325631572   -0.0066478713
 C   -0.2218784344   -2.1640477980   -0.4915093818
 O   -0.9345719568   -0.9852684384   -0.0549686594
 C   -0.0163044452    0.0354776532   -0.0270476087
 C    1.2613943173    0.0416454133   -0.9391320570
 H   -0.5250422247    2.0148487385    0.9121595055
 H   -0.5144277961    2.0552641454   -0.8886698689
 H    2.2504213968    1.9589401921    0.0319107827
 H    1.2837690597   -0.0818800671    1.9851430314
 H    1.7783968395   -2.9494494649   -0.6480253145
 H    1.3091288852   -2.6168175007    1.0188672102
 H   -0.2370281915   -2.1757138993   -1.5899843167
 H   -0.7898744555   -3.0269361240   -0.1354718845
 H    1.3380413719    0.0243929015   -2.0272334149