19

 C    0.0640384878    1.4596505582   -0.0735899421
 C    0.0626884020    0.0035210047   -0.0373502301
 C    0.0471966411   -1.1998429535    0.0224009150
 C    0.0474695115   -2.6718701134    0.0279289057
 C   -1.4043391867   -3.2133975798    0.0627265683
 C    0.7366031006   -3.1556965548   -1.2889497565
 O    2.0390950461   -2.6585285488   -1.4501925947
 C    0.7918488656   -3.1730152318    1.1914437788
 C    1.3756285751   -3.6200742288    2.1412546058
 H    0.9596683479    1.8671943301    0.4075435456
 H    0.0386100893    1.8337338115   -1.1027888624
 H   -0.8083795905    1.8667405698    0.4488637995
 H   -1.9646263618   -2.8409405187   -0.7992305507
 H   -1.3953586706   -4.3067000929    0.0396920713
 H   -1.9095431718   -2.8897952761    0.9746047663
 H    0.8148881374   -4.2464405334   -1.2620412038
 H    0.0792172110   -2.8727702777   -2.1262704622
 H    1.9851722421   -1.6972172366   -1.3788797476
 H    1.9061222939   -4.0017717380    2.9781837438