16

 C    0.1178727148    1.7432115783    0.1187510835
 C   -0.0746985733    0.2452885997   -0.0802453552
 C    0.4918488944   -0.5584580122    1.1130405918
 C    0.4749108829   -1.9997494536    0.8791113590
 N    0.4639860636   -3.1342736867    0.6600505928
 O   -1.4740224816    0.0045530008   -0.1947112491
 C   -1.8968099478   -0.9396163243   -1.0696146171
 N   -3.1263285346   -1.1980375728   -1.1556918592
 H    1.1803299342    1.9909460036    0.1968496683
 H   -0.3072811256    2.2882598967   -0.7269013429
 H   -0.3886957185    2.0764744276    1.0292866924
 H    0.4319977528   -0.0793485079   -0.9986779091
 H    1.5234695140   -0.2473230657    1.3097155198
 H   -0.0998329306   -0.3289634705    2.0055022877
 H   -1.0837772298   -1.3975956361   -1.6470307345
 H   -3.2820933249   -1.9166493569   -1.8593192481