17

 C    0.0083982289    1.5611559530   -0.0490395792
 C    0.0058294657    0.0566641615   -0.0712487669
 C    0.4559576292   -0.8378378960   -1.2431189429
 C   -0.2710977108   -1.9301113989   -0.4364160657
 O    0.5809642603   -2.0717887339    0.7209964026
 C    0.4082119102   -0.7472633704    1.2463535689
 C   -1.1012041225   -0.7556000504    1.5688452630
 O   -1.7852932366   -0.5123414748    2.5186275175
 C   -1.3143668921   -0.8655097701    0.0704200738
 H    1.0337020893    1.9478345359   -0.0646450063
 H   -0.5182090558    1.9725159516   -0.9159510848
 H   -0.4795725055    1.9455031944    0.8535415122
 H   -0.0728610016   -0.5698462973   -2.1614237834
 H    1.5224397696   -0.9829751498   -1.4336737972
 H   -0.5539985947   -2.9035881657   -0.8307137956
 H    1.2008994435   -0.4627167695    1.9340190596
 H   -2.2489936673   -0.7006077796   -0.4580554856