15

 N   -0.1684126403    1.1981483149   -0.6045795342
 C   -0.0739280341    0.0607549105   -0.0999232367
 O    0.9851482769   -0.5716673732    0.5317996652
 C    0.2256447493   -1.8150506977    0.6531234215
 C   -0.1648662876   -2.1300593471    2.0889857135
 O   -1.3709590458   -1.3990116952    2.3508373979
 C   -1.9854588225   -1.0094260539    1.1873771498
 N   -3.1693117280   -0.5932527116    1.0967890580
 C   -1.0111660354   -1.1342273004    0.0360535669
 H    0.6989833621    1.7288352570   -0.5102859631
 H    0.7226531843   -2.6271780050    0.1227987342
 H   -0.3588533502   -3.2020487468    2.2168011984
 H    0.5982269728   -1.8129000051    2.8038002187
 H   -3.6277149758   -0.5990176307    2.0095507307
 H   -1.4679324156   -1.5019301955   -0.8788991309