21

 C   -0.0140481014    1.5029086573    0.0514371424
 C    0.0072091814   -0.0125175893   -0.0309192720
 C    0.7583468344   -0.6073642706   -1.2328069950
 C    0.8732541902   -2.0590994138   -0.7386149277
 C    1.2235123598   -1.8265358136    0.7537021217
 O    0.7859034640   -0.5038290238    1.0817173368
 C   -0.4928649079   -2.7535280690   -0.8985509528
 C   -1.6064904351   -1.8765190929   -0.3772665349
 C   -1.3898205093   -0.6234915566    0.0215364251
 H    1.0042434798    1.9002645550    0.0282552159
 H   -0.5777287299    1.9255982306   -0.7861454834
 H   -0.4883862341    1.8281434160    0.9826636676
 H    0.2170894949   -0.5104060337   -2.1773122910
 H    1.7403291545   -0.1337067876   -1.3321612680
 H    1.6526834758   -2.6316024604   -1.2476801653
 H    0.7326441375   -2.5620739861    1.4048804836
 H    2.3041060434   -1.8814416801    0.9338005293
 H   -0.6734744039   -3.0028896427   -1.9550130376
 H   -0.4954119572   -3.7137510591   -0.3650663903
 H   -2.6035953100   -2.3079156846   -0.3283901884
 H   -2.1956683166   -0.0152100152    0.4237426939