21

 C   -0.0184940452    1.5469639473    0.2008635741
 C    0.0302546487    0.0618358543   -0.1775667399
 C   -1.3420014551   -0.5840915476   -0.1316683002
 C   -1.5599020803   -2.0801002382    0.0334503845
 C   -0.4195008136   -3.0681150841    0.1586193709
 C   -1.9096298375   -1.1224030999    1.1511133800
 O   -1.0576202062   -1.0430582443    2.2815573111
 C   -1.3078626481   -1.9121457258    3.2836748823
 O   -0.6743058934   -1.9252872330    4.2954410333
 H    0.9738836226    2.0026767011    0.1316177107
 H   -0.6890708678    2.1055404134   -0.4617300619
 H   -0.3771835133    1.6725635886    1.2268912832
 H    0.4388906544   -0.0517632715   -1.1894762338
 H    0.7170706682   -0.4559384670    0.4965206723
 H   -2.0725479519   -0.0823104951   -0.7628219135
 H   -2.4232186095   -2.4757212942   -0.4964352568
 H    0.3945287471   -2.6866267383    0.7776930705
 H   -0.7668586989   -4.0039729150    0.6100259619
 H   -0.0067446116   -3.3104260054   -0.8260513893
 H   -2.9514569188   -0.9349402125    1.3957433400
 H   -2.1540367799   -2.5895793027    3.0603704604