17

 C    0.3277423447    1.5303079486    0.1380586365
 C    0.1884936357    0.0841835327    0.0726391202
 C    0.0619513517   -1.1125314886    0.0285532713
 C   -0.0425015148   -2.5413772189   -0.0511194515
 O   -0.5344223548   -3.2519745188    1.0930768760
 C   -1.3526422264   -3.2529597648   -0.0844775102
 C   -2.6105041591   -2.5640348328   -0.0394943105
 C   -3.6843627678   -2.0193068205   -0.0259815822
 C   -4.9750773012   -1.3498600492    0.0030358245
 H    1.3711329028    1.8364400011    0.0055254673
 H   -0.2665438226    2.0223287973   -0.6397625996
 H   -0.0111919674    1.9124972817    1.1071118302
 H    0.7887943880   -3.0417293650   -0.5493706683
 H   -1.3654856657   -4.2117927970   -0.6042214675
 H   -5.7940060919   -2.0556918621   -0.1733205278
 H   -5.1477367879   -0.8751731875    0.9750796247
 H   -5.0352680232   -0.5694404062   -0.7635100532