17

 C   -0.3284205181    0.9212050890    0.9255473201
 C    0.3314415010   -0.3208934133    0.3135850638
 C    0.6891060460   -0.1327293311   -1.1447913378
 C    0.4329171119   -1.1958348572   -2.1448452548
 O   -0.4040731262   -0.0525594709   -2.0719988512
 C    1.8278887447    0.8179910432   -1.4356874018
 O    2.6048986091    1.1644125493   -0.5710954604
 C    1.9513757424    1.2901089379   -2.8046993698
 C    2.1020492753    1.6976660213   -3.9270225487
 H    0.3548196512    1.7745138046    0.9159867296
 H   -1.2304755197    1.1930280211    0.3693061531
 H   -0.6136669203    0.7309265023    1.9639862728
 H    1.2463596416   -0.5689952244    0.8604827317
 H   -0.3431908458   -1.1795785258    0.3917032784
 H    1.0486623966   -1.2669965335   -3.0394181571
 H   -0.0035297158   -2.1291173299   -1.7917550633
 H    2.2303803361    2.0638979673   -4.9168146145