16

 C    0.0176978811    1.5403632217    0.0354187411
 C    0.0482325149    0.0141701686   -0.0135431950
 C   -1.2784753746   -0.5640134569    0.1860916532
 N   -2.3327048618   -1.0059964536    0.3614054418
 C    0.7834741179   -0.6974729650   -1.1648932826
 C    2.2515532394   -0.7600209555   -0.7049680510
 O    2.3501841857   -0.0962182747    0.5572996807
 C    1.1020892629   -0.7393535601    0.8965240661
 C    1.2941593177   -1.8013676908   -0.2453108137
 H    1.0399274831    1.9195261393   -0.0055840839
 H   -0.5479277789    1.9413581413   -0.8106762606
 H   -0.4556867332    1.8942008775    0.9561264931
 H    0.4765618682   -0.7666277972   -2.2000707785
 H    3.1080347670   -0.7774660512   -1.3645745597
 H    0.9416987112   -0.8834709375    1.9618127749
 H    1.2589596791   -2.8791674159   -0.2945002259