23

 C   -0.1807622270    1.4502450806   -0.0063326963
 C    1.2296712682    0.9074438161    0.0254916354
 C    0.0644426238   -0.0400430403    0.0019285036
 C   -0.3293070778   -0.8654601070    1.2243390916
 C   -1.5492494153   -1.6565289374    0.7234915343
 C   -1.1462432437   -2.0350408505   -0.6994093433
 C   -0.7968030297   -3.4684370810   -1.0225957146
 C   -2.0470697371   -2.8387205409   -1.5930001631
 C   -0.2754510915   -0.8866118870   -1.2366178779
 H   -0.5697457159    1.9140232221    0.8949793295
 H   -0.5288287888    1.9075684379   -0.9274103989
 H    1.8316684732    1.0010454107   -0.8731021564
 H    1.7943541216    1.0043104580    0.9477347602
 H    0.4780441843   -1.5607068669    1.4899446572
 H   -0.5367417462   -0.2495671286    2.1045529213
 H   -1.7929809855   -2.5255472964    1.3419828786
 H   -2.4319669183   -1.0035997686    0.7078649495
 H    0.0324116173   -3.6543882133   -1.6982308119
 H   -0.9114648522   -4.2156203686   -0.2432807077
 H   -3.0067488686   -3.1601050277   -1.1999310464
 H   -2.0602803639   -2.6025615926   -2.6525683555
 H   -0.8109208774   -0.2912167552   -1.9851041692
 H    0.6285281107   -1.2719752536   -1.7221350398