20

 C    0.1115022597    1.5857852600   -0.0253961290
 C   -0.0254089069    0.0539972147    0.0299232838
 O   -1.3971576873   -0.3026043362    0.0985178123
 C    0.6431015033   -0.6363501795   -1.1765682341
 C    2.1244415360   -0.7849417410   -0.7768397754
 C    2.0888070147   -1.0986769982    0.7361946643
 C    0.7786716355   -0.5138439444    1.1995501237
 N    0.2698787737   -0.4895707519    2.3623888408
 O    1.1126923345   -1.0772615022    3.3195054447
 H    1.1539524003    1.9033024760   -0.1351479958
 H   -0.4622155815    1.9693623523   -0.8741114293
 H   -0.2806746184    2.0287038189    0.8947551061
 H   -1.6464070847   -0.2493766153    1.0294550799
 H    0.1756319935   -1.6196164756   -1.2942098072
 H    0.5003219514   -0.0829278954   -2.1082739980
 H    2.6380807179   -1.5577312721   -1.3535043993
 H    2.6608827879    0.1535853059   -0.9533361919
 H    2.0773847648   -2.1787336525    0.9291832180
 H    2.9383907783   -0.6995718998    1.2979429921
 H    0.5967013972   -0.9957276139    4.1288150842