20

 C   -0.1728248432    1.5113772655    0.0306916036
 C    0.0869815346    0.0295025990   -0.0227721851
 N   -0.6982195141   -0.9006958857    0.8553987911
 C    0.7664212671   -0.7546520303    1.0334140449
 C    1.5272725901   -1.9253108044    0.3856887981
 C    3.0154574207   -1.9189762448    0.7148769296
 O    1.0103659460   -3.1793104499    0.8171839260
 C    1.2337632214   -1.7002110374   -1.0979732051
 C    0.4479742700   -0.6467336991   -1.3151890116
 H    0.6685550647    2.0704202294   -0.3923846463
 H   -1.0689340476    1.7756725185   -0.5425308509
 H   -0.3194975098    1.8518204423    1.0608888007
 H   -1.1680648346   -0.3551161743    1.5772627316
 H    1.1437375851   -0.3054774428    1.9466926333
 H    3.1615132079   -2.0736255211    1.7886567363
 H    3.5239428556   -2.7277549026    0.1824824855
 H    3.4740892114   -0.9689934669    0.4255799715
 H    0.0485587272   -3.0706992168    0.7952821176
 H    1.5853590741   -2.4031591014   -1.8451591595
 H    0.0669827935   -0.3165689872   -2.2754925013