25

 C    3.9732018728   -0.1710951606    1.4855736035
 O    2.9723821418   -1.0928341268    1.1330305621
 C    3.0903740154   -1.5512854368   -0.1967272287
 C    1.9597197080   -2.5365065112   -0.4742561217
 C    1.9830510532   -3.0430216701   -1.9025648988
 C    2.8134425201   -4.2338700442   -2.3520223275
 C    3.6981675271   -5.0307614390   -1.4159248908
 C    1.3003560060   -4.3268284741   -2.3337568096
 C    0.5364742150   -5.2168281771   -1.3749342019
 H    4.9817779361   -0.6078745250    1.4027931187
 H    3.9414500964    0.7312649404    0.8534069374
 H    3.8009625859    0.1214121615    2.5245444557
 H    3.0403857453   -0.7017999798   -0.9011835591
 H    4.0694251467   -2.0365075708   -0.3519228987
 H    2.0325208542   -3.3530988602    0.2492657681
 H    1.0067385340   -2.0318368810   -0.2717859043
 H    1.9231127098   -2.2346136038   -2.6293384675
 H    3.2461969618   -4.1307092158   -3.3446522528
 H    3.2821454656   -5.1209810480   -0.4098967277
 H    3.8512439267   -6.0470311590   -1.7966125102
 H    4.6856284987   -4.5651198610   -1.3196598979
 H    0.8335770777   -4.2774731300   -3.3150707949
 H    1.0016576183   -5.2795926946   -0.3886605456
 H   -0.4848647090   -4.8470691930   -1.2298648232
 H    0.4639530126   -6.2376146099   -1.7669635450