20

 C   -0.1562043221    1.4491204114   -0.1279065861
 N    0.0611715526    0.0149075207    0.0103133067
 C    1.4118108934   -0.4923604936   -0.1763226667
 C    0.7784177711   -0.5081258687    1.1833411201
 C    1.3004138833    0.4122715613    2.2792005547
 O    2.0919002896   -0.3179193057    3.2011432902
 C    1.3584824743   -1.3054831480    3.9017308968
 C    0.4657592304   -2.1222524116    3.0091184665
 C    0.2242992651   -1.7647390088    1.7491961132
 H    0.7037815896    2.0763442557    0.1529012968
 H   -0.3949560915    1.6623909773   -1.1748925416
 H   -1.0157865978    1.7485887716    0.4801271889
 H    1.5052014980   -1.4070762799   -0.7564767557
 H    2.2163072213    0.2276420872   -0.3300830178
 H    1.9464736224    1.2006874371    1.8884535497
 H    0.4499881063    0.8887203918    2.7965073758
 H    2.1049473245   -1.9436476391    4.3893822209
 H    0.7605830329   -0.8427150267    4.7096931541
 H    0.0233025534   -3.0165153445    3.4393571548
 H   -0.4088143367   -2.3545985376    1.0931625988