17

 C   -0.0396550075    1.3541734726   -0.5628668811
 C   -0.1344907901    0.0392035876    0.2243614295
 C   -1.4864225821   -0.6019825376    0.0400669913
 O   -1.7477975065   -1.2877798355   -1.1645074905
 C   -1.7147568825   -2.0906126343    0.0196374424
 C   -0.5762782686   -3.0598094253    0.1883976069
 O    0.4720457860   -2.9821174347   -0.3994283713
 C   -3.0634714936   -2.5455504731    0.4905297058
 O   -3.2355906196   -3.4315173108    1.2881434179
 H    0.9397579609    1.8172622574   -0.4162479157
 H   -0.1733394661    1.1737690712   -1.6333350580
 H   -0.8018740918    2.0722841319   -0.2416688790
 H    0.6397935846   -0.6566304598   -0.1038084746
 H    0.0125548518    0.2292175050    1.2946861194
 H   -2.3350883772   -0.0106992283    0.3983739128
 H   -0.7958759718   -3.8687945656    0.9107942906
 H   -3.9009926060   -1.9765298109    0.0302833437