19

 O    0.0071707620    1.3012310289    0.0483217417
 C   -0.0316805784   -0.1131719961    0.0631287563
 C   -1.5067078828   -0.5388240698   -0.0013256926
 C   -1.5902952066   -2.0710922394   -0.1958592092
 C   -2.8628117933   -2.5269595177   -0.7498773269
 N   -3.8641525042   -2.8869380669   -1.2008088041
 C   -2.2590639769    0.0107637685    1.2045417560
 C   -3.4055779709   -0.6593895065    1.8620225901
 N   -2.1072858155   -0.5516836183    2.5594364910
 H    0.8885958968    1.5881223258    0.3024509676
 H    0.5113962976   -0.5325776300   -0.7995041172
 H    0.4285588574   -0.5210903987    0.9772160817
 H   -1.9305559612   -0.0644762478   -0.8947318431
 H   -0.7978609857   -2.3941054645   -0.8806793094
 H   -1.4082501327   -2.6022698234    0.7463201114
 H   -2.2447467895    1.0964952380    1.2127229048
 H   -4.2035014516   -0.0579216740    2.2881944865
 H   -3.7276342338   -1.6323670217    1.5051523653
 H   -1.6297543308   -1.4504081264    2.5291053400