19

 C   -0.0253413849    1.6038238105    0.1889693089
 C    0.0673819466    0.0912541525    0.0475998858
 C    0.7541126799   -0.5088190610   -1.2282206604
 C    1.2764390435    0.4060738190   -2.3288379900
 C    1.8062512395   -1.0913723939   -0.2628639701
 O    2.8031232877   -1.7412114212   -0.3730983636
 N    1.1356215135   -0.5494569989    0.8474093017
 C    1.2901960519   -0.6158536474    2.2200413441
 N    2.2563771417   -1.2195571691    2.7799582677
 H    0.9454280824    2.0826939264    0.0366027244
 H   -0.7328234085    2.0105539238   -0.5404542251
 H   -0.3845799646    1.8801351070    1.1856716554
 H   -0.9105899087   -0.3630915524    0.2451576016
 H    0.1508967200   -1.3121061929   -1.6631022005
 H    1.9050695872    1.2084147464   -1.9332465522
 H    1.8861971109   -0.1754246151   -3.0261058839
 H    0.4556907159    0.8594322667   -2.8933154988
 H    0.4779847164   -0.0873126736    2.7371794561
 H    2.1701260496   -1.1482088169    3.7925399187