18

 C    0.0299217855    1.4654608206   -0.3014752932
 N    0.1236783106    0.0265584311   -0.0662844798
 C    1.4395560934   -0.5694685595   -0.0521810307
 C    0.6346779992   -0.4306112513    1.2100270208
 C    1.0590531318    0.3319139070    2.4844987875
 O    0.1994797828    1.4332733199    2.7070622030
 C    0.7056266834   -0.9363985652    3.3276275676
 C    0.1205143375   -1.5807449261    2.0473761952
 O   -0.4669754418   -2.5962213935    1.8171936479
 H    0.8841519682    2.0360853013    0.0902523820
 H   -0.0358488712    1.6270899994   -1.3815816841
 H   -0.8776966743    1.8459314363    0.1707702176
 H    1.5314213378   -1.5470617768   -0.5183872258
 H    2.3100093032    0.0819502057   -0.1397285468
 H    2.1127571423    0.6333549060    2.5234294976
 H    0.3954259279    1.7938598728    3.5779292059
 H    1.5604803148   -1.4835078660    3.7354416747
 H   -0.0266153311   -0.7596979717    4.1198213906