23

 C   -0.1314255506    1.5229310689    0.1345831863
 C    0.0805666107    0.0135747528    0.0404450826
 C    0.8063781890   -0.4647300422   -1.2285005939
 C    1.1889662715   -1.9139946174   -0.8957732044
 C    1.5660593728   -1.8962826425    0.6136132769
 C    0.9439706344   -0.5800879941    1.1751368143
 C    1.0837058180   -3.1320344484    1.3330201440
 C    1.9250175377   -4.3200284063    1.5223538985
 O    1.6731345104   -3.4198608413    2.6037561455
 H    0.8273944250    2.0541039290    0.1052567588
 H   -0.7435780519    1.8938970233   -0.6945518598
 H   -0.6344780491    1.7986127130    1.0676261997
 H   -0.9033178398   -0.4775078363    0.0628734500
 H    0.1962735643   -0.3775045169   -2.1330374610
 H    1.7095546448    0.1410682553   -1.3846824642
 H    0.3195650010   -2.5659281648   -1.0523291245
 H    1.9945423133   -2.3077134981   -1.5214416700
 H    2.6541502286   -1.8613742776    0.7279819806
 H    1.7413647574    0.1254792085    1.4349263635
 H    0.3714768911   -0.7531006250    2.0915370272
 H    0.0007956733   -3.2830009260    1.3104654216
 H    1.4689936896   -5.3049216286    1.6157439198
 H    2.9465168586   -4.3180504551    1.1427665885