14

 C   -0.0997050724    1.4297392059    0.2305787932
 C    1.2960555840    0.8799731400    0.0080147027
 C    2.2164491598    0.6436020332    1.1939629592
 N    1.7608531787   -0.3428806401    2.1658239090
 C    0.7280097274   -1.0290272389    1.9326027044
 O   -0.1299403850   -0.9932299700    0.8800289877
 C    0.1033622053   -0.0193351141   -0.1122738166
 H   -0.3910621780    1.6539431195    1.2520244264
 H   -0.5339623569    2.0801643982   -0.5203517187
 H    1.7912933488    1.1599673334   -0.9165932988
 H    3.1919339109    0.3031579115    0.8239144868
 H    2.4124191823    1.5802825925    1.7321810639
 H    0.3962856111   -1.7895266896    2.6367230207
 H   -0.2132932057   -0.3979593817   -1.0765898797