25

 C    0.1459282109    1.5226395359    0.0891948767
 C    0.0361475506    0.0025772888    0.0568170362
 C    0.2159262449   -0.6226528403    1.4422099750
 O   -1.2419416283   -0.2897802486   -0.5106945163
 C   -1.4122027057   -1.5964364186   -0.9608290556
 C   -2.0959369929   -2.6309175987   -0.0893519608
 C   -2.8078175419   -2.0410847572   -1.2971026331
 C   -3.9497413703   -1.0754859015   -1.0446890663
 C   -2.9864309993   -2.9277434546   -2.5148482065
 H    1.1225324497    1.8317332151    0.4733209305
 H    0.0157824266    1.9369222706   -0.9139074181
 H   -0.6293908423    1.9446661625    0.7367663917
 H    0.8136123139   -0.3988357698   -0.6151341604
 H   -0.5476764552   -0.2468223342    2.1313455273
 H    0.1378535754   -1.7115799504    1.4015294353
 H    1.2006675112   -0.3676973663    1.8474466766
 H   -0.6060660237   -1.9427314477   -1.6113350823
 H   -1.7533382562   -3.6605398124   -0.1292227362
 H   -2.4272523193   -2.2995515950    0.8887888760
 H   -3.7411955899   -0.4266740006   -0.1922496289
 H   -4.1162455061   -0.4327631939   -1.9170034500
 H   -4.8806655583   -1.6205046534   -0.8499428541
 H   -3.8761651402   -3.5602821314   -2.4104868301
 H   -3.1091973695   -2.3285640741   -3.4248933170
 H   -2.1268303242   -3.5892371541   -2.6636864695