20

 C    0.0292595838    1.3233784251    0.2022524530
 O   -0.1400080567   -0.0236198235   -0.1656960077
 C    0.6156649564   -0.5320039143   -1.2365538974
 C    0.5318847225    0.0900899993   -2.6072836772
 C    1.8171014974    0.1859083497   -1.7991029416
 C    0.6698797252   -2.0297324488   -1.1441560339
 C    0.8090130329   -2.7225052257    0.1872664817
 C   -0.4864887236   -2.8172497616   -0.5831585873
 H    1.0391450082    1.5262796057    0.5842266028
 H   -0.1807817201    2.0199367741   -0.6227396255
 H   -0.6910191002    1.5156982372    1.0013201027
 H    0.4952053140   -0.5692449401   -3.4678303004
 H   -0.0448721447    1.0015867924   -2.7222083615
 H    2.0836506409    1.1630092430   -1.4145103386
 H    2.6702474639   -0.4161120157   -2.0936955301
 H    1.1973844405   -2.4809275898   -1.9794844381
 H    1.4463696159   -3.5980112153    0.2457716200
 H    0.8095120967   -2.0965752782    1.0714507345
 H   -1.3293898823   -2.2541867460   -0.2017460197
 H   -0.7415108006   -3.7581672874   -1.0583048555