19

 C   -0.2619045875    1.5036013996   -0.1012896196
 C    0.0932819097    0.0186997819    0.0729168824
 C    0.8715368647   -0.5250007206   -1.0872379474
 N    0.2400233662   -0.8075734715   -2.4063371411
 C    0.9957908860   -1.8785871903   -1.6958022793
 C    2.4604059291   -1.6576434763   -2.0667502952
 C    2.3317467984   -0.2003661855   -1.4725800367
 O    2.5197526688    0.8926355953   -2.3275719326
 H    0.6385140059    2.1016114939   -0.2696487628
 H   -0.9194837924    1.6512356598   -0.9639415479
 H   -0.7727335374    1.8921121385    0.7846100082
 H    0.6844742533   -0.1125448569    0.9884561477
 H   -0.8209171231   -0.5745371786    0.2111023080
 H   -0.7529025510   -0.9651572616   -2.2356574669
 H    0.5015468604   -2.8030239825   -1.4217767447
 H    3.1579358399   -2.2808376335   -1.5021824642
 H    2.6931089530   -1.7103555793   -3.1333185607
 H    2.9794274602   -0.0488315625   -0.6052368086
 H    1.8313956656    0.8038260601   -3.0017999485