15

 C   -0.0328307053    1.5485485405   -0.0167898404
 C   -0.0086783382    0.0469181127   -0.0057576856
 C   -0.0334294644   -0.6951076262   -1.1322507093
 O   -0.0130037225   -2.0219792288   -1.1542653535
 C    0.0391462481   -2.7675195603    0.0862343410
 O    0.0541505290   -3.9564927383   -0.0366923653
 N    0.0649948152   -2.0491293944    1.2367148628
 C    0.0431621151   -0.7352279772    1.2117758610
 N    0.0718709086   -0.0993479356    2.4025101051
 H    0.8613745528    1.9766257809    0.4536970544
 H   -0.0721648829    1.9255816602   -1.0422223140
 H   -0.9076856659    1.9485737468    0.5112395258
 H   -0.0726197960   -0.2625683332   -2.1287621447
 H    0.1082573057   -0.6608695574    3.2371360121
 H    0.0590330607    0.9006044904    2.4767813407