22

 C   -0.0988238062    1.3989434963   -0.3194256246
 C    0.0533988330   -0.0246020394    0.1661652939
 N    1.2662695623   -0.8590274681   -0.0181919820
 C    2.4542626019    0.0356385721    0.2159881412
 C    2.0022977406    0.3905689450    1.6525282356
 C    0.7660815004   -0.4786395199    1.3835459252
 C    0.1984275578   -1.4912988279    2.3430774307
 C    1.2135041629   -2.5369253948    2.8211373986
 O    0.6407289585   -3.4784764854    3.7156086212
 H    0.7009097940    2.0627669635    0.0145872212
 H   -0.1274563253    1.4297613067   -1.4142801096
 H   -1.0438911353    1.8124270504    0.0480815970
 H   -0.8214112952   -0.6320110298   -0.0629657177
 H    3.3663733576   -0.5632407728    0.1811591140
 H    2.5497910023    0.8552850659   -0.5027082106
 H    2.6640248116   -0.0210181390    2.4162216704
 H    1.8157422777    1.4416908569    1.8940561234
 H   -0.2229322688   -0.9780777747    3.2176938379
 H   -0.6346446682   -2.0139498924    1.8546360217
 H    1.6669839651   -3.0283146556    1.9477957166
 H    2.0221364660   -2.0593040518    3.3839747509
 H   -0.0145498427   -3.9855333350    3.2258001450