23

 C   -0.7085952766    1.0179006456    0.0102785928
 O   -0.3485499958   -0.3494807036    0.0600718144
 C    0.6368237358   -0.6359589539    1.0248916493
 O    0.1884074583   -0.4003997214    2.3377732058
 C   -0.3699244915   -1.6037857981    2.8892804445
 C   -0.1235546836   -2.7462645342    1.8757089778
 C   -1.4045327405   -3.1648218199    1.1429939351
 C    0.9797558749   -2.1288526417    0.9727683130
 C    1.1528253143   -2.7146516568   -0.4259630494
 H    0.1602143796    1.6494027809   -0.2317541950
 H   -1.4556599958    1.1259053719   -0.7792230061
 H   -1.1310540836    1.3573864335    0.9631489830
 H    1.5000761475    0.0284741272    0.8663460566
 H    0.1258714967   -1.7864061257    3.8498779269
 H   -1.4391682478   -1.4553965828    3.0831877463
 H    0.2792218133   -3.6211682373    2.3963347398
 H   -1.8410561314   -2.3190029986    0.6062955286
 H   -1.2115603965   -3.9646361252    0.4216411102
 H   -2.1441632326   -3.5399023727    1.8584755394
 H    1.9292702647   -2.2255450445    1.5140295504
 H    0.2576026973   -2.5724954099   -1.0330361005
 H    1.9858327502   -2.2291553498   -0.9451649151
 H    1.3746676131   -3.7857097329   -0.3755590979