19

 C   -0.4846040418    1.4577260132    0.0827862564
 C    0.0469002809    0.0258744172   -0.0132736239
 C    0.9152371496   -0.2084928499   -1.2882429683
 C    2.2782319035   -0.7883197022   -0.9393949387
 C    2.3978212586   -1.6946985446    0.2724240977
 O    1.2764090370   -1.7088039902    1.1270996385
 C    0.8938372495   -0.3407225977    1.2111591059
 O    2.1026317470    0.4122008092    1.2108683400
 C    2.9476772137   -0.3015064899    0.3319216615
 H    0.3446104248    2.1684120850    0.1528191778
 H   -1.0814462106    1.7124274825   -0.7985999164
 H   -1.1198454444    1.5904031583    0.9658944066
 H   -0.7984056132   -0.6714091889   -0.0158401875
 H    0.3970598912   -0.8762100003   -1.9840904972
 H    1.0585731792    0.7407870985   -1.8173424838
 H    2.9384390106   -1.0143514043   -1.7717333007
 H    2.9651276228   -2.6153769364    0.2929189797
 H    0.3755073718   -0.1744480274    2.1592629060
 H    3.9879430297   -0.0159451121    0.4114902365