16

 C   -0.0158991755    1.4496399157   -0.1843241894
 O   -0.0323400105    0.0463195501   -0.0441355224
 C    0.5116521299   -0.6244835277   -1.1595170238
 C    0.4654922603   -2.1123676964   -0.8509287887
 C    0.8927855170   -2.9819955593   -2.0283046819
 O    1.1561432564   -2.5476691974   -3.1186318288
 C    1.2986568986   -2.4944023490    0.3731798533
 O    1.3268279359   -3.6084690840    0.8262807687
 H    1.0091263825    1.8347730586   -0.2982656661
 H   -0.6052166263    1.7765561829   -1.0544651224
 H   -0.4555350018    1.8722823243    0.7217689795
 H   -0.0514953089   -0.4056765727   -2.0778333358
 H    1.5523669132   -0.3064103637   -1.3410653689
 H   -0.5644148286   -2.4128269748   -0.6078188682
 H    0.9467836533   -4.0636916911   -1.7904380550
 H    1.9014128448   -1.6681203454    0.8047656901