18

 C    0.0635367201    1.4953753290    0.0903535694
 C    0.0058179988    0.0067243361    0.0157381509
 C   -0.0333797476   -0.7578686867   -1.0955654729
 C   -0.0633345507   -0.2577783805   -2.4254150484
 N   -0.0977118590    0.1351139088   -3.5155412858
 C   -0.0034352003   -2.2229318125   -0.7847269267
 C    1.2537501293   -2.7012467974   -0.0894371041
 C    0.0580280686   -2.2931494683    0.7312765155
 C   -0.0027050197   -0.8622873582    1.2585967797
 H    0.9879898312    1.8266607949    0.5797844728
 H    0.0167098757    1.9534040832   -0.9001179396
 H   -0.7649277912    1.8848335669    0.6952229279
 H   -0.5818122954   -2.9109507639   -1.3893717844
 H    1.4768270719   -3.7616768727   -0.1381273778
 H    2.1247617575   -2.0538748116   -0.1152563557
 H   -0.4780715517   -3.0666974285    1.2671142996
 H    0.8350487045   -0.6168136103    1.9246186520
 H   -0.9167910622   -0.6809659281    1.8409776476