19

 C   -0.2502763182    1.4488151582    0.1089191758
 C    0.0393670247   -0.0525509612   -0.0471174406
 O    0.9025934538   -0.3012925566   -1.1527491868
 C    0.7174963219   -0.6046982725    1.1759686923
 C    0.1145594147   -1.1861489096    2.2232901832
 C    1.0974623607   -1.5567002402    3.2627798737
 O    0.8745790409   -2.0920089284    4.3244705257
 C    2.4799596902   -1.1324848198    2.7367516197
 C    2.2192590766   -0.5139372681    1.3516432181
 H    0.6767882717    2.0076530670    0.2657909968
 H   -0.7351495434    1.8342482745   -0.7955920696
 H   -0.9197558610    1.6313780935    0.9541083157
 H   -0.9178101705   -0.5791468422   -0.1842582550
 H    0.5213252798    0.1230445681   -1.9277706841
 H   -0.9451121940   -1.3837323968    2.3315127912
 H    2.9315027439   -0.4283935405    3.4419102705
 H    3.1369782549   -2.0061609080    2.7008568006
 H    2.7205450702   -1.0475430782    0.5384684724
 H    2.5588279933    0.5260234010    1.2785390706