25

 C   -0.2794180122    1.5044934389    0.1037080411
 C    0.0057235890    0.0072782956   -0.0600849143
 C    0.7945447278   -0.4216095756   -1.3256597807
 C    0.1507251433    0.1493949296   -2.5995337592
 C    2.2497702543    0.1004341597   -1.2594949724
 O    2.9860069776   -0.3850560291   -0.1464815157
 C    0.8363403679   -1.9567187874   -1.3227397189
 C   -0.1246897903   -2.8355731982   -2.0816679358
 C    1.3283595026   -2.7867538982   -2.4864017498
 H    0.6396947342    2.0979167320    0.1386780529
 H   -0.9024411080    1.8985485487   -0.7051369963
 H   -0.8135214572    1.6839276285    1.0422430277
 H    0.5703485382   -0.3413657764    0.8118944894
 H   -0.9455707226   -0.5397453969   -0.0557831232
 H    0.2802481851    1.2346934856   -2.6474243073
 H    0.6007921501   -0.2663830325   -3.5069420424
 H   -0.9240261110   -0.0533852731   -2.6314995021
 H    2.7608795984   -0.1415868501   -2.2039440416
 H    2.2532211036    1.1908463775   -1.1622638632
 H    3.1579371024   -1.3188816396   -0.3007788261
 H    1.1096357649   -2.3515412061   -0.3467831735
 H   -0.4967619035   -3.7294307964   -1.5931058563
 H   -0.8413428983   -2.3672804437   -2.7461596798
 H    1.5708479772   -2.2834189189   -3.4162181336
 H    1.9548239366   -3.6479859537   -2.2794800488