15

 N   -0.0880404622    1.4962045343    0.0232109915
 C   -0.0117673562    0.0478247459    0.0020080145
 C    0.6668472887   -0.5620240895   -1.2620992535
 C    0.0180096186   -0.1017710953   -2.4852452362
 N   -0.5207033626    0.2905223094   -3.4293675472
 C    0.7414395747   -0.4501830745    1.2540736021
 C    0.0569712690   -0.1099853596    2.4985962004
 N   -0.4835065843    0.1284820909    3.4909017134
 H    0.8273319076    1.9170146708   -0.1108509878
 H   -0.6894358476    1.8385447814   -0.7190547630
 H   -1.0376099754   -0.3329417336    0.0445440098
 H    1.7242192970   -0.2698771979   -1.2932250958
 H    0.6358365959   -1.6575697358   -1.2330610606
 H    0.8683878222   -1.5377556570    1.2137180620
 H    1.7485703246   -0.0145988895    1.2749519304