17

 O    0.0966775965    0.0596783259    0.2624923647
 C    0.0120225956    1.2334016754    0.1211342532
 C   -1.0917723956    2.3331979247   -0.0603213451
 C   -0.7239813060    3.0563599339    1.2533210452
 C    0.6293179004    3.1373826959    1.2871108319
 C    1.0094490579    2.4928473173   -0.0161202400
 C    2.0484880397    2.3484962783   -1.1322757872
 C    0.8237846491    2.3327682594   -2.1309119677
 C   -0.0533350738    3.0004053951   -1.0117113013
 H   -2.1434395079    2.1385491345   -0.2676709354
 H   -1.4276776683    3.2696889143    2.0456178982
 H    1.2620406050    3.4564594302    2.1033706942
 H    2.6713671216    3.2383390437   -1.2598810227
 H    2.6867950689    1.4624360786   -1.1102283091
 H    0.9309282396    2.9184305768   -3.0447279816
 H    0.5222969799    1.3177508266   -2.3995063936
 H   -0.1516010927    4.0841792293   -1.1095802738