23

 C    0.1190068448    1.4543540300   -0.0132992841
 C   -0.0096599162   -0.0458498128    0.1334372394
 C   -1.4244379058   -0.6250767885    0.0612709026
 C   -1.4328802754   -1.9306789229    0.8967423295
 C   -0.1649473016   -1.8849838937    1.7909906839
 C    0.7550002789   -0.8341567345    1.1808725608
 C    1.1584687712   -0.9172784105   -0.2829848382
 C    1.1164059212   -2.1652195423   -1.1354881769
 O    2.2792919591   -2.9669847228   -0.9505235753
 H    1.1500193849    1.7849332505    0.1466233188
 H   -0.1810331962    1.7854184363   -1.0149283445
 H   -0.5176685368    1.9779624532    0.7102019488
 H   -2.1104245846    0.1102422664    0.4985167122
 H   -1.7661704988   -0.7922269392   -0.9665273943
 H   -2.3428890515   -2.0141916843    1.4975827359
 H   -1.4188845121   -2.8099724382    0.2485113225
 H   -0.4229204526   -1.5721608215    2.8090429753
 H    0.3016347152   -2.8731836287    1.8831585422
 H    1.4445411052   -0.3284382271    1.8503933312
 H    2.0557073719   -0.3399717974   -0.5011807648
 H    0.2067446686   -2.7542265941   -0.9658278257
 H    1.1224526672   -1.8889462345   -2.1960335579
 H    2.3640359035   -3.1254785034   -0.0046339514