13

 C    0.0684882244    1.2975677833    0.0087729578
 N    1.3067296640    1.7843413390   -0.0005023287
 N    2.0417741787    0.6444813850   -0.0138792821
 C    3.3966996959    0.5295033747   -0.0276017561
 N    3.9848876807   -0.6288446375   -0.0396588899
 C    3.1990428406   -1.7474130036   -0.0382225720
 C    1.8281961616   -1.7265065287   -0.0248638391
 C    1.2009936829   -0.4647209481   -0.0118611296
 N   -0.0618918418   -0.0509337495    0.0026228570
 H   -0.7821401231    1.9640054119    0.0206696012
 H    3.9553872085    1.4591694717   -0.0278832420
 H    3.7368349455   -2.6896858238   -0.0486020446
 H    1.2318480420   -2.6292968645   -0.0240700318