14

 C   -0.0117726250    1.4323338278    0.0096679656
 N   -0.0066160822   -0.0112436368    0.0757924637
 N   -0.0434322680   -0.7718815085   -1.0841339846
 N   -0.0299780809   -2.0370912669   -0.7746254700
 C    0.0161060539   -2.1366076627    0.5847497179
 C    0.0303465806   -0.8674978535    1.1049903231
 O    0.0750589408   -0.8214641993    2.4427925908
 C    0.0906010677   -2.1764332768    2.8046469579
 C    0.0567291349   -3.0088416302    1.7309408620
 H    0.8972334192    1.8443983278    0.4572698209
 H   -0.0535390766    1.7019922863   -1.0457510641
 H   -0.8846441261    1.8408032834    0.5269757049
 H    0.1266642938   -2.3450005740    3.8676683815
 H    0.0607880281   -4.0861238465    1.7714359306