17

 C    0.4345203501    0.7830987296   -0.7825174057
 C   -0.2893141382    0.4290860478    0.5278060468
 C   -1.6337496100   -0.1626564872    0.3056428827
 N   -2.7682357647    0.3070595520    0.6904909606
 N   -3.6873962035   -0.6162244614    0.2250825645
 C   -5.1035007036   -0.4613293207    0.4509084742
 C   -3.0910504491   -1.6451684416   -0.4465044213
 O   -3.5509971916   -2.6142516915   -0.9834138622
 O   -1.7286787754   -1.3327695714   -0.3858636351
 H    1.4262666740    1.1891610679   -0.5670916867
 H    0.5559791092   -0.1015532189   -1.4128132578
 H   -0.1262821744    1.5319107791   -1.3492310242
 H    0.3163577025   -0.2844103624    1.0999875942
 H   -0.4283813852    1.3156283278    1.1517323824
 H   -5.3234576358   -0.4416192896    1.5222121983
 H   -5.4690820518    0.4625548350   -0.0066840516
 H   -5.5968925926   -1.3187222244   -0.0091831291