21

 C   -0.3437400608    1.5210958360   -0.0409322451
 C   -0.1392295491    0.0381123719   -0.0474629552
 C    0.0071866595   -0.7426302285   -1.1238951081
 C    0.2349846985   -2.1897314392   -0.7749595137
 O    1.5791233237   -2.6060412418   -1.0442852624
 C   -0.1510577204   -2.2407925787    0.7263252844
 C   -0.0867038718   -0.7786837282    1.2383052216
 C    1.1694670109   -0.5278236047    2.0818971832
 O    1.1561714598    0.8076678181    2.5637312996
 H   -0.3452112928    1.9299308859   -1.0550909472
 H   -1.2997726821    1.7772818245    0.4333803908
 H    0.4313510059    2.0166866638    0.5503523722
 H    0.0283440020   -0.3876392991   -2.1493492507
 H   -0.3786744921   -2.8787866265   -1.3646975525
 H    2.1535593490   -1.8678929779   -0.8139446693
 H   -1.1714872169   -2.6213380164    0.8293702400
 H    0.5098906433   -2.9237645524    1.2677873987
 H   -0.9451241462   -0.5402069485    1.8789169173
 H    1.1803670618   -1.2455827895    2.9170814695
 H    2.0657187321   -0.7241010317    1.4696983901
 H    1.9378796557    0.9413400928    3.1075775969