18

 C   -0.1126356785    1.5143576502    0.0102423636
 N    0.1902464667    0.0866103065    0.0478892568
 C    1.3203043854   -0.6629180102   -0.3891979458
 C    2.7338735483   -0.1959682084    0.0907035909
 C    2.7421754574    1.0487961937    0.9363728924
 C    2.2595279755   -0.2425033537    1.5318518347
 C    0.8315035252   -0.7166899582    1.0531699486
 C    0.1125547671   -1.7203055051    1.7658435646
 C   -0.4584458933   -2.5631838494    2.4079277976
 H    0.5347433439    2.0460601195   -0.6942835640
 H   -1.1488308191    1.6444984671   -0.3224616217
 H   -0.0191851103    1.9757093647    0.9980730498
 H    1.1941054056   -1.4098314508   -1.1667269972
 H    3.6382698342   -0.6247586632   -0.3198304778
 H    3.7350868970    1.3325788130    1.2757089176
 H    2.0987146957    1.8948485296    0.7513034647
 H    2.7423418660   -0.7190677422    2.3741030936
 H   -0.9754284467   -3.3089278031    2.9588249216