12

 O   -0.0957514254   -0.0334956156   -0.0009279873
 C   -0.0142350548    1.1741057787    0.0078310308
 C    1.2238601826    1.9047349432   -0.0000789437
 C    2.2558166506    2.5382274104   -0.0065407722
 C    3.4532124934    3.2716567638   -0.0143311204
 C    4.7425874179    2.8057136761   -0.0324812426
 O    5.6057099061    3.8150170522   -0.0343645647
 N    4.9026665717    5.0259727337   -0.0170113295
 C    3.6418435138    4.6932491421   -0.0053251245
 H   -0.9167826632    1.8179981963    0.0228436661
 H    5.1574741273    1.8099465040   -0.0449222876
 H    2.8853686298    5.4643146552    0.0092194956