20

 C   -0.0473836189    1.3023131018   -0.4048582436
 C    0.2934070126   -0.1318353987   -0.0648261288
 O   -0.3998948553   -1.0435777028   -0.8966644037
 C    1.6808899392   -0.5558545664    0.2677171071
 C    0.6261064628   -0.5541239735    1.3795853486
 C    0.7249415071    0.5026551608    2.4666404537
 C    0.1629597241   -1.8877141940    1.9393168290
 N    0.0666990212   -2.9427855339    1.0723088332
 O   -0.0625065562   -2.0124152359    3.1313533675
 H    0.5677891284    2.0178724677    0.1414540986
 H    0.1057862075    1.4641496398   -1.4764341175
 H   -1.0974708306    1.5224992441   -0.1749155200
 H   -1.3449789537   -0.9130362472   -0.7521769354
 H    2.0082447483   -1.5209938583   -0.1019614346
 H    2.4571598680    0.2008073703    0.3171303778
 H    1.2183372839    1.4081583351    2.1073653718
 H   -0.2624493083    0.7740979235    2.8515858688
 H    1.2977777134    0.1081738039    3.3084469246
 H   -0.0590022151   -2.7550420528    0.0883875878
 H   -0.3429694485   -3.7772817534    1.4620319750