19

 C    0.1214051907    1.4533570210    0.3158870413
 C   -0.0276770174    0.0104441697   -0.1777080772
 C   -1.4533298047   -0.5198705102   -0.0648278285
 C   -1.6513261599   -1.9699889229    0.2359644783
 N   -1.9356868309   -0.9668852852    1.2704464611
 C   -2.4319993455    0.1703727780   -0.8730593861
 C   -3.2180919541    0.7507743010   -1.5775935071
 C   -4.1855274636    1.4445052666   -2.4155653956
 H    1.1543066687    1.7975668642    0.2084002963
 H   -0.5246651522    2.1257969821   -0.2555763702
 H   -0.1560755219    1.5429430141    1.3714680239
 H    0.2908569272   -0.0567354108   -1.2247885043
 H    0.6336942513   -0.6531519439    0.3942320730
 H   -2.5261857168   -2.4802485155   -0.1549664319
 H   -0.7619319770   -2.5891861262    0.3274164125
 H   -1.1579810527   -0.9228011953    1.9265829216
 H   -5.1779762746    0.9877281338   -2.3333725832
 H   -4.2815005676    2.4976532828   -2.1288151823
 H   -3.8939444092    1.4136027267   -3.4713739719