18

 C   -0.0647615400    1.5401707855   -0.0014763652
 C   -0.0043764165    0.0194040847   -0.0115493907
 O   -1.2932556868   -0.4335780095   -0.3172139071
 C    1.1976690291   -0.5610705273   -0.8418512637
 C    2.0618621423   -0.4131925954    0.4306620123
 C    0.7340936178   -0.6386402944    1.2092596914
 N    0.4323965266   -2.0815188762    1.2001066635
 C    0.5903866051   -2.6142002433    0.0550878162
 O    0.9657003769   -1.9714481804   -1.0713726923
 H    0.9094420349    2.0089112612    0.1477219841
 H   -0.4735564838    1.8910703114   -0.9539841004
 H   -0.7367198534    1.8726350087    0.7949969957
 H   -1.3956804041   -1.3180337169    0.0541126613
 H    1.4892749218   -0.1357398264   -1.8013555765
 H    2.8433259364   -1.1593716891    0.5804690602
 H    2.4725911145    0.5886484223    0.5451027343
 H    0.6002898248   -0.2287015402    2.2105176960
 H    0.4250001244   -3.6741863647   -0.1217208491