17

 N    0.5632760524    0.2251888036    0.3496407523
 C   -0.6212664547    0.2950236853   -0.3366182423
 O   -0.7632310917    0.8719263455   -1.3923673091
 N   -1.6619408775   -0.3912822814    0.3474297918
 C   -2.7882664772   -0.8623135410   -0.4545407685
 C   -1.8299591403   -1.8245588060    0.1330616226
 C   -0.8701095760   -2.7956923572   -0.5531624394
 O   -1.0732368265   -3.7563704264    0.5080818355
 C   -1.9650855874   -2.8760826088    1.2273963881
 H    1.2933020378    0.8425684062    0.0328530768
 H    0.5359027336    0.0104093073    1.3326799489
 H   -3.7661554829   -0.7210435762   -0.0024507775
 H   -2.7293067380   -0.6712807774   -1.5229153256
 H   -1.1913653805   -3.1803712833   -1.5282470942
 H    0.1721000323   -2.4598208431   -0.6154053829
 H   -1.5652743036   -2.5802983396    2.2055496882
 H   -2.9628071997   -3.3132364071    1.3572917354