16

 O   -0.9609499737    1.1758318555   -0.0488487180
 C   -0.0250326381    1.8829596315    0.2157846498
 C    1.3481205792    1.7714210391   -0.4082840030
 C    1.8236412312    3.1106512568   -0.9793727374
 C    3.3037564730    3.1185502097   -1.3125148789
 O    4.0613395314    2.2368589444   -1.0013000692
 C    3.8397015443    4.3184130222   -2.1310103033
 C    3.1828760835    5.5904033279   -1.8583089770
 N    2.6478074872    6.5865803488   -1.6203371685
 H   -0.1154857774    2.6954110960    0.9758860333
 H    2.0529998237    1.4583026214    0.3732497775
 H    1.3324984971    0.9892850216   -1.1708376938
 H    1.2560678827    3.3950932598   -1.8746955008
 H    1.6503991719    3.9309562780   -0.2671901511
 H    4.9151532314    4.3923476296   -1.9511915619
 H    3.7056431127    4.0694889976   -3.1921819977