15

 N   -0.0588789629    1.3349065498    0.1234101951
 C   -0.0642439980   -0.0137224544    0.0329738088
 N   -1.0818940521   -0.8071837455   -0.0065614523
 C   -0.4052206329   -2.1150396164   -0.0442740316
 C    0.8609216782   -2.1116658052    0.8700208319
 O    1.6094777085   -2.9715023118   -0.0608542261
 C    0.8725126524   -2.0475144597   -0.9373305028
 C    1.2035362777   -0.8343742547    0.0128011357
 O    2.4137679994   -0.1797007370    0.0391383026
 H    0.8018913370    1.8199678362   -0.0658161270
 H   -0.9234250072    1.8288928357   -0.0294248545
 H   -1.0406080110   -2.9958077736   -0.0797631814
 H    0.9774455956   -2.2880670404    1.9411169626
 H    1.0031415682   -2.1470641502   -2.0168781961
 H    3.1032403870   -0.8568753029    0.0131302050