19

 C   -0.3997575209    1.1541218240   -0.0583581143
 N   -0.1039712597   -0.2675090737   -0.0224249264
 C    0.6010428016   -0.7469417930   -0.9678947534
 N    1.1794415554   -0.0706852131   -2.0236007064
 C    0.9852394120   -2.2364464180   -0.9522170997
 O    0.1872900521   -3.0166411699   -0.1242760883
 C   -0.9464163387   -3.3583943153   -0.9125590998
 C   -0.3396367327   -3.5425144113   -2.3150852776
 O    0.8640701003   -2.7699606162   -2.2765289091
 H    0.5073035864    1.7690953199    0.0467738697
 H   -0.8988753935    1.4654551286   -0.9923501388
 H   -1.0688892939    1.4080642014    0.7676362059
 H    0.8377203222    0.8557819644   -2.2245619026
 H    1.3658199142   -0.6384209135   -2.8373706585
 H    2.0281506309   -2.3441822448   -0.6313715843
 H   -1.3873528786   -4.2683472731   -0.5019412849
 H   -1.6861035344   -2.5490103036   -0.8918014314
 H   -0.0817233560   -4.5878994479   -2.5195874557
 H   -0.9971551965   -3.1765623249   -3.1108426246