22

 C    0.0784599430    1.5883715073    0.0759391875
 C   -0.0271101718    0.0638448591   -0.0199395843
 C    0.6952031337   -0.5111887128   -1.2458841177
 O    2.0604375729   -0.0825648452   -1.2726799533
 C    0.5948791410   -2.0459725126   -1.3632770618
 C   -0.8526287575   -2.5580756961   -1.3957930750
 C    1.3602449968   -2.5345601038   -2.5969925570
 O    1.3981508901   -3.9567767488   -2.5602654471
 H    1.1237522991    1.9063168198    0.0867751544
 H   -0.4032199308    2.0691767013   -0.7828215974
 H   -0.4076901489    1.9607822171    0.9826585838
 H    0.3957518710   -0.3995347096    0.8843967626
 H   -1.0810194202   -0.2311840566   -0.0485637250
 H    0.2592340006   -0.0633072694   -2.1504972933
 H    2.4891508839   -0.4405840728   -0.4864991020
 H    1.0980469421   -2.4822877571   -0.4862212798
 H   -0.8584633144   -3.6238403695   -1.6337945579
 H   -1.3629006807   -2.4207697445   -0.4393133405
 H   -1.4341792465   -2.0370569678   -2.1666158413
 H    0.8486780292   -2.1757196186   -3.5066947629
 H    2.3700792981   -2.1072926305   -2.5944566108
 H    1.8769936994   -4.2618848289   -3.3357957410