15

 O    0.0370958214    1.3274448373    0.0075894246
 C   -0.0159202761    0.0077970831    0.0009703905
 C   -1.2343309003   -0.6161874046    0.0050108250
 C   -1.4839659547   -2.0057863990   -0.0007806546
 C   -0.5886563552   -3.0403304419   -0.0115976246
 C    0.8324113369   -2.9475626949   -0.0196701898
 N    1.6578690600   -1.9427107167   -0.0193535252
 C    1.3509467404   -0.6038518216   -0.0104502526
 N    2.2662559913    0.3074897368   -0.0111522845
 H    1.0244953103    1.5022819924    0.0025953413
 H   -2.0922635813    0.0482782741    0.0136559555
 H   -2.5363752712   -2.2801053902    0.0041107698
 H   -0.9852151881   -4.0506022180   -0.0145159571
 H    1.3380401066   -3.9170459796   -0.0278222244
 H    3.1959882701   -0.1048368573   -0.0189120737