21

 C   -0.0282726447    1.5251190810   -0.0404269243
 C    0.0119245269    0.0253739998   -0.0145904709
 C    0.5006715669   -0.9812239764   -1.0496345499
 C    1.2382531481   -1.7845911967    0.0183326358
 C    0.6471364628   -0.8294663043    1.1133896575
 C   -0.3407203853   -1.4764488094    2.0877464554
 C   -1.4773238442   -2.1449232826    1.3519208695
 C   -1.7485001084   -1.8739995829    0.0732093723
 C   -0.9880586883   -0.8607849274   -0.7023745903
 H    0.9630233634    1.9554558157    0.1474610571
 H   -0.3732297405    1.8948978588   -1.0120882799
 H   -0.7100950444    1.9210556568    0.7225077719
 H    0.8418618086   -0.8003110102   -2.0633411985
 H    0.9777278850   -2.8442425411    0.1063036711
 H    2.3237733720   -1.6920566438   -0.0654415064
 H    1.4292493304   -0.2885952394    1.6530708227
 H    0.1863268161   -2.2171717118    2.7045807311
 H   -0.7320466753   -0.7308084414    2.7970619933
 H   -2.0721223171   -2.8743901114    1.8952305880
 H   -2.5592250050   -2.3893554739   -0.4356055958
 H   -1.5484223171   -0.3669937395   -1.4925621997