15

 O    0.0415748506    1.4133137956    0.1842612497
 C    0.0478317475    0.0265935864    0.0634392172
 C   -1.3134668416   -0.6740727778    0.0155910283
 N   -1.9577178431   -0.1369792972   -1.2000602612
 C   -1.0076071475   -1.2827912932   -1.3219480254
 C   -1.4175549395   -2.5382500342   -1.8551224172
 N   -1.7307211527   -3.5629597962   -2.2932135286
 C    0.3801988250   -0.6105460312   -1.3695026637
 O    0.6343962385    0.2385772958   -2.4361430526
 H   -0.6702046948    1.7439335216   -0.3777348256
 H    0.7103810137   -0.3710344216    0.8344009912
 H   -1.9037204013   -1.0918039085    0.8214591739
 H   -2.9087235833   -0.4967902745   -1.2589931037
 H    1.1983693966   -1.3303105944   -1.3123001192
 H   -0.1485492783    0.7900785495   -2.5572323330