17

 O    0.3444874198    1.1280772027    0.3826816852
 C    0.0572223347   -0.2447490604    0.2584707687
 C   -1.4243646222   -0.4937206283   -0.1002623161
 C   -1.8057949927   -1.9658505996   -0.3955654064
 C   -2.7056863635   -2.3906992121    0.7531823721
 O   -2.0788287926   -2.2191525999    2.0228901690
 C   -3.0539034189   -1.2385037033    1.6015457534
 C   -2.3155607762   -0.0409594604    1.0625252982
 O   -2.3737671007    1.0858356487    1.4990762785
 H   -0.3376240550    1.5171757156    0.9468227563
 H    0.6912121698   -0.6313478530   -0.5473033287
 H    0.3023406452   -0.8082012346    1.1728156641
 H   -1.6534812448    0.1526384990   -0.9538615073
 H   -2.3433374009   -2.0525922413   -1.3446997560
 H   -0.9297072320   -2.6202616117   -0.4550582847
 H   -3.3602979077   -3.2540740955    0.6692038280
 H   -3.9444482722   -1.1411619661    2.2134551258