20

 C    0.0863497133    1.5208945798    0.1442032775
 C    0.1095061990    0.0397806583   -0.0396368255
 C    0.2661287424   -0.7345085097   -1.1620018797
 C    0.2134296060   -2.1086808407   -0.7712543890
 C    0.3139634113   -3.2817607750   -1.6872384099
 O   -0.9470726101   -3.4979284104   -2.3296537609
 C    0.0194894818   -2.1368631525    0.5960050940
 C   -0.1305241213   -3.2703774233    1.5563323006
 N   -0.0385217432   -0.8291674569    1.0215212112
 H    0.8833683513    1.8708359489    0.8131191377
 H    0.2255939250    2.0154044761   -0.8198188878
 H   -0.8658470885    1.8734266964    0.5612868025
 H    0.4014516956   -0.3633513210   -2.1674145922
 H    1.0963061365   -3.0944924241   -2.4396104621
 H    0.6199498996   -4.1779880138   -1.1250222364
 H   -0.8239439363   -4.2001702758   -2.9770018246
 H    0.6175295551   -3.2348813188    2.3588741302
 H   -1.1195565190   -3.2783874902    2.0321151700
 H   -0.0137763656   -4.2248182933    1.0391466841
 H   -0.1640099128   -0.5468020640    1.9787499002