19

 C    0.0129524859    1.5641699749   -0.1000761009
 C    0.0071947980    0.0349315442   -0.0731801913
 O    0.8900855980   -0.4650197999    0.9232848018
 C   -1.3990956291   -0.5321161608    0.1285074718
 C   -2.3881637446   -0.3492856940   -1.0560467683
 N   -2.1152899368   -1.7423474281   -1.4702471463
 C   -1.5695012553   -2.0670492668   -0.1355221499
 C   -0.4131231229   -2.9662458545   -0.1470446593
 N    0.4574011940   -3.7256001330   -0.1712947395
 H    1.0378372106    1.9268507886   -0.2121506974
 H   -0.5857534412    1.9626597188   -0.9244148579
 H   -0.3934626709    1.9700713680    0.8354819281
 H    0.4088874974   -0.3481805288   -1.0184069032
 H    0.6415416070   -0.0686812605    1.7662575089
 H   -1.7798120920   -0.2144553808    1.1036757139
 H   -3.4156859192   -0.1608983131   -0.7164760352
 H   -2.1281762378    0.3964275538   -1.8141511314
 H   -2.9111222481   -2.2975196964   -1.7635683900
 H   -2.3069764328   -2.4900221115    0.5622728361