18

 C   -0.1421200939    1.4340058260   -0.0123433060
 C    0.0090446709   -0.0571197189   -0.0400339341
 C    0.9496216725   -0.8958679847   -0.9066337556
 C    0.1078698258   -2.1283306374   -0.4756423041
 C    0.4030124405   -2.2641491073    1.0435522815
 C   -0.3251393580   -0.9337386439    1.2127965666
 C   -1.0628791413   -1.1024545524   -0.0968152281
 O   -2.3737508685   -0.9636897218   -0.4714718482
 H    0.7340443936    1.9194303557    0.4332252529
 H   -0.2685763366    1.8363905982   -1.0238605282
 H   -1.0205310308    1.7300657540    0.5705401518
 H    0.8204681275   -0.6587584409   -1.9671621773
 H    2.0189396706   -0.9152858829   -0.6621182972
 H    0.0289551660   -3.0054272458   -1.1149291216
 H   -0.1500129845   -3.0894878391    1.5024885395
 H    1.4579598854   -2.3264422036    1.3348526526
 H   -0.6698721873   -0.4551178852    2.1213146295
 H   -2.9038119118   -1.6083447699    0.0110879560