18

 O   -0.2831458266    1.4025739751   -0.0282365147
 C    0.1297002089    0.0407493635   -0.0647043311
 C    1.0526727296   -0.2041530499   -1.2640564071
 N    0.4286750073    0.2760000953   -2.4793614818
 C    0.3950375184   -0.4415689370   -3.6317780958
 O    0.9256075659   -1.5198758585   -3.8003625391
 C    0.7970726616   -0.4062965673    1.2498791597
 C   -0.0476506331   -0.2205603245    2.4217408653
 C   -0.7491029087   -0.0705395346    3.3852715427
 H    0.4478241287    1.9323089296    0.3108021963
 H   -0.7961814760   -0.5261443349   -0.2078384792
 H    2.0145597178    0.3043625126   -1.0923918332
 H    1.2632722220   -1.2678795984   -1.4007152831
 H   -0.0849803319    1.1413828049   -2.4102751782
 H   -0.1805042888    0.0796944720   -4.4220231243
 H    1.0819119767   -1.4621556984    1.1573122967
 H    1.7387849682    0.1484526480    1.3771268872
 H   -1.3695585398    0.0614908325    4.2367576398