19

 C    0.0717611765    1.4732905318   -0.1090939250
 C    0.0002459569    0.0272181706    0.0359527977
 C   -0.0664620948   -1.1683588411    0.1519569697
 C   -0.1221416328   -2.6139846474    0.3060147925
 O   -1.3357644832   -3.1173447052   -0.2379795608
 C   -1.4336681748   -4.5112796437   -0.1515241399
 C   -1.9074866110   -5.1311640540    1.1884874417
 O   -3.0371749451   -5.7456300063    0.5354217049
 C   -2.7583685944   -5.0576922525   -0.7024196387
 H    0.9382560829    1.7724349208   -0.7088110986
 H   -0.8247082426    1.8597789844   -0.6060453125
 H    0.1510297422    1.9692561731    0.8643961910
 H    0.7383127403   -3.0835350874   -0.2011738853
 H   -0.0418708434   -2.8799963732    1.3732831202
 H   -0.5359890066   -4.9936856875   -0.5642194569
 H   -1.2555657834   -5.8729329671    1.6638895504
 H   -2.2122111849   -4.3772583742    1.9269905030
 H   -3.4827123726   -4.2611107006   -0.9128482592
 H   -2.7032791093   -5.7439182505   -1.5542569142