18

 C    0.0210430797    1.5729039881    0.0981713114
 N    0.0195306112    0.1284322054    0.1660884925
 C   -1.0310454107   -0.5696430074    0.9399833089
 C   -1.6113555473   -1.8001516475    0.2064682446
 N   -0.3829013102   -2.5632695807    0.5662774734
 C    0.0505677761   -1.5259741531    1.5133614477
 C    1.1013793924   -0.5345841127    0.9260245350
 C    2.2113391914   -1.0633557955    0.1351847058
 N    3.1086392294   -1.4755986359   -0.4648819944
 H    0.8950250149    1.9111633453   -0.4673061979
 H   -0.8723434313    1.9154741755   -0.4329788335
 H    0.0429269714    2.0626126710    1.0901335081
 H   -1.6888563524    0.0663538056    1.5371695556
 H   -2.5286768066   -2.1745428864    0.6799880256
 H   -1.7710533641   -1.6894114030   -0.8701900032
 H   -0.5330962924   -3.4794776808    0.9671716927
 H    0.1685767339   -1.8068117769    2.5602394787
 H    1.5122717446    0.1033302090    1.7263007991