18

 C   -0.3359016980    1.5388528259    0.0592353328
 C    0.0267921346    0.0499721188   -0.0101687320
 C    0.6979536655   -0.3347200569   -1.3217862670
 C    2.0716196599    0.0729960181   -1.7264064784
 N    1.7657809340   -1.3380653308   -1.3758606968
 C    2.2864941612   -1.7762060140   -0.1504650373
 C    1.8227388612   -1.4304843867    1.0631048478
 C    0.7846056554   -0.4128068370    1.2437923906
 O    0.5081515141    0.0432344726    2.3381100305
 H    0.5606363808    2.1623678765   -0.0169043493
 H   -1.0114871486    1.8145646784   -0.7561527143
 H   -0.8209729748    1.7559385760    1.0121878815
 H   -0.9118618851   -0.5229319555    0.0324386323
 H   -0.0029113056   -0.4589428632   -2.1452937811
 H    2.3001695692    0.2588119095   -2.7713839445
 H    2.6769060362    0.6204445444   -1.0089437178
 H    3.1355961930   -2.4478322382   -0.2574679862
 H    2.2665006170   -1.8379966180    1.9644171494