17

 C   -0.2390497445    1.5352021536   -0.0609226268
 C    0.1759209470    0.0714797712   -0.0935936766
 O    1.3119715829   -0.3014184946   -0.2327721922
 N   -0.9111295425   -0.7921132942    0.0567466946
 C   -0.9035272615   -2.1731178583    0.0748859764
 N    0.0698290679   -2.9753447139   -0.0369656484
 C   -0.5089995152   -4.3209347524    0.0544809591
 C   -2.0350934369   -4.0952788283    0.2452418494
 O   -2.1729637739   -2.6574863589    0.2419621042
 H    0.6514590041    2.1492377588   -0.1871218507
 H   -0.9503893541    1.7592603822   -0.8630321599
 H   -0.7190954693    1.7849185982    0.8913553405
 H   -1.8275173446   -0.3871207672    0.1670832329
 H   -0.2856513409   -4.8892800586   -0.8549054840
 H   -0.0636443158   -4.8660576192    0.8937377467
 H   -2.6433826974   -4.4989612544   -0.5687871843
 H   -2.4187566554   -4.4733932839    1.1968135192