23

 C   -0.1243282204    1.5805770068    0.1270213042
 C    0.0286243513    0.0641456845   -0.0338401120
 C    0.7419435793   -0.4309916312   -1.3209527997
 C    0.0325988311    0.0865152990   -2.5846717452
 C    2.2184237885    0.0061937180   -1.3153966372
 C    0.6529219754   -1.9939919946   -1.2875087878
 O   -0.6788730138   -2.4322964718   -1.2287510727
 C    1.3458071167   -2.6657193966   -2.4577491385
 O    0.7505489921   -3.4110033043   -3.2012197560
 H    0.8374564354    2.1033053700    0.1296905543
 H   -0.7402302457    2.0173494353   -0.6646914715
 H   -0.6152944724    1.8045643074    1.0792956649
 H    0.5803640613   -0.3305921499    0.8304471807
 H   -0.9612675381   -0.4001052251   -0.0012227420
 H    0.0587535980    1.1782149515   -2.6338749377
 H    0.5128763426   -0.2900716034   -3.4949741656
 H   -1.0118527167   -0.2353314023   -2.5988254768
 H    2.7717836308   -0.4552228591   -0.4889646729
 H    2.7297933483   -0.2468115552   -2.2491788046
 H    2.2982170072    1.0902034256   -1.1979515133
 H    1.2002496935   -2.3265235050   -0.3845862487
 H   -0.7884649732   -3.0326849954   -1.9837025392
 H    2.4254338490   -2.4655901941   -2.5912345526