16

 C   -0.0224217653    1.5048975575    0.1969864181
 O    1.3238490792    1.9125292148   -0.1978190311
 C    1.9447441664    0.7728450048   -0.6423444623
 C    2.6236581095    0.2488805792   -1.9800356873
 N    4.0047067057    0.4163403873   -1.4402109773
 C    3.2270972111   -0.0889199998   -0.2711158744
 C    2.2741091521   -1.0498455205   -1.1189361299
 C    1.0456988627   -0.3800926689   -0.5527813878
 C   -0.1263177695   -0.0072940928   -0.0652391344
 H   -0.1628524990    1.7639524526    1.2550687938
 H   -0.7437765388    2.0891478194   -0.3900977757
 H    2.3390105952    0.4398978422   -3.0147246792
 H    4.6137418448   -0.3231007984   -1.8014329537
 H    3.6542570483   -0.2963656872    0.7100028893
 H    2.4814208837   -2.0808505465   -1.3959371595
 H   -1.0263376460   -0.5702517836    0.1412892015