23

 C   -0.0579807416    1.5084303500   -0.0941051020
 C    0.0785282991   -0.0137515578   -0.0133873594
 C    0.6582081765   -0.4951812401    1.3222253228
 C    0.8045421431   -2.0102178641    1.3877825305
 O    1.6859812078   -2.5065874467    0.3412426633
 C    2.6377210272   -3.2786591289    1.0922344147
 C    1.7558456711   -4.0625338562    2.0953856528
 C    1.5095267204   -2.6101760378    2.6189256018
 C    3.0109768717   -2.3479386318    2.2702425688
 H    0.9145687527    2.0000517954    0.0215895814
 H   -0.4746350227    1.8206318340   -1.0569375266
 H   -0.7163686436    1.8928036156    0.6934747046
 H   -0.9035326957   -0.4800232016   -0.1695606794
 H    0.7215627240   -0.3767873569   -0.8224218684
 H    1.6306738041   -0.0181218683    1.4923639918
 H    0.0031663618   -0.1790111748    2.1465317238
 H   -0.1867034428   -2.4673400857    1.2501124956
 H    3.3574090829   -3.7346619893    0.4141047379
 H    0.9069461111   -4.6166038085    1.6871529512
 H    2.3277507608   -4.6766309240    2.7931161546
 H    1.0804387419   -2.3977820433    3.5975811284
 H    3.6891227548   -2.8115182681    2.9886235023
 H    3.3352074350   -1.3341996611    2.0289273995