19

 O   -0.0121911750    0.0173641232    0.1162359622
 C   -0.0313613077    1.2180181856    0.0389308487
 C   -1.2883099681    2.1029007201   -0.0297147983
 C   -0.7172118289    3.5267155525    0.1688134896
 C    0.6242455754    3.4362346793   -0.5965580136
 C    1.2009752205    2.1411202063    0.0017949367
 C    1.6686924552    2.4085890169    1.4540982411
 C    0.6711334172    3.2504204569    2.2127926410
 C   -0.4173540778    3.7636289321    1.6375527489
 H   -1.7436987107    1.9852110881   -1.0220443396
 H   -2.0254318749    1.7909618027    0.7134691304
 H   -1.3805942701    4.3008152215   -0.2228473010
 H    0.4546930107    3.3335655028   -1.6741570965
 H    1.2615293683    4.3083981717   -0.4290820929
 H    2.0035810523    1.6760211406   -0.5740312689
 H    1.8300558487    1.4541452326    1.9707771197
 H    2.6469568120    2.9096107207    1.4363283973
 H    0.8730417469    3.4253583111    3.2665439857
 H   -1.1295492239    4.3423891853    2.2191516396