19

 C   -0.1782881715    1.5244696800   -0.1587452163
 C    0.0718290805    0.0434146245    0.0416471108
 O    1.1231636270   -0.4831750906   -0.8130656372
 C    1.7801772053   -1.1187324447    0.2931779631
 C    2.8985846553   -0.2737887867    0.8766094719
 C    3.0154645939   -0.5819913142    2.3525884586
 C    1.9127007137    0.3274975684    1.8782323106
 O    1.8314296186    1.6505986251    2.2791652309
 C    0.7609494498   -0.5031874810    1.3167541346
 H    0.7121100583    2.1163953427    0.0569716632
 H   -0.4845604754    1.7064350467   -1.1941291552
 H   -0.9866473236    1.8642691873    0.4982764996
 H   -0.8559535625   -0.5158296490   -0.1501752470
 H    1.9427953644   -2.1890787804    0.1354848894
 H    3.6876825519    0.2048649146    0.3107065916
 H    2.8110586030   -1.5796275766    2.7363964206
 H    3.8268826732   -0.0619355405    2.8516702991
 H    1.6344554659    1.6727185204    3.2220474553
 H    0.1379879123   -1.0693054461    2.0122404765