20

 C    0.0346997473    1.3569528041    0.1147947461
 C    0.0426621002   -0.1473921371    0.0591448663
 C    0.6493728678   -1.0537695314   -1.0601211318
 C    0.0510124454   -2.0394751987   -0.0178670124
 C    0.6969900871   -1.1409840551    1.0744079767
 C   -1.1982785739   -1.1089457500    0.0042459253
 C   -2.2108332886   -1.1895175115    1.1551387961
 C   -3.1052446044   -0.0321310555    1.1783589561
 N   -3.8008901070    0.8909913007    1.1801804417
 H    1.0569247561    1.7504387720    0.1290827693
 H   -0.4779966196    1.7793556001   -0.7558046167
 H   -0.4798415646    1.7211909954    1.0099413203
 H    0.1653851814   -1.0151661305   -2.0403961583
 H    1.7388306615   -1.0461111592   -1.1491370499
 H    0.0537945280   -3.1290692790   -0.0657077016
 H    1.7899392534   -1.1367751492    1.1075239966
 H    0.2899804736   -1.1817807981    2.0869291170
 H   -1.7435044895   -1.0661149580   -0.9448973217
 H   -2.8231683295   -2.0922781950    1.0412760022
 H   -1.7241603049   -1.2657402140    2.1316439787