16

 O   -0.1438260885   -0.0038370321    0.1741064258
 C   -0.0685243663    1.1834255669    0.0886331932
 N   -1.0462600237    2.2102299593    0.0552576819
 C   -0.1102084300    3.1703234151   -0.5813584138
 C    0.4478691777    4.5671938621   -0.2098657385
 C    1.8509157242    4.0319546400    0.2831499456
 C    1.3973769166    3.0262680195    1.3434849815
 C    1.0011937343    2.3212488241    0.0302761533
 O    2.2011713932    2.8641877270   -0.5835839156
 H   -2.0035041847    2.0418172596   -0.2238485899
 H   -0.1235593329    3.0562580621   -1.6684339021
 H    0.5023995675    5.2179692901   -1.0841674552
 H   -0.0580279686    5.1016313258    0.5970050881
 H    2.6805201620    4.7281643546    0.4016150354
 H    2.2308967033    2.5069133829    1.8159954428
 H    0.6193370859    3.3015496630    2.0571635775