17

 O   -0.0668836900    1.4546047068    0.0795956600
 C    1.3935820082    1.4689147063   -0.0140404448
 C    2.0059400354    1.3054345616    1.3651350077
 C    1.2908968334    0.2488760719    2.1898533202
 C    2.6515388316   -0.0418014269    1.5666239703
 C    1.9497927323   -0.8993686214    0.4827043437
 C    0.5746686389   -0.7040412742    1.2090019317
 C   -0.0209516011    0.0272148963   -0.0568360920
 C    1.4139002036    0.0367936990   -0.6377951597
 H    1.7498933029    2.3256237314   -0.5893270595
 H    2.3914108717    2.1644268571    1.9009860310
 H    1.0230254487    0.4263294095    3.2235163093
 H    3.6168131088   -0.2002793188    2.0299249935
 H    2.3348610715   -1.8828489490    0.2238203853
 H    0.0311601946   -1.5384762987    1.6498040449
 H   -0.9130072166   -0.3925714125   -0.5254282811
 H    1.6692541861   -0.0808091883   -1.6897012206