17

 C    0.0007520097    1.5697724453    0.2210410643
 C   -0.0126756186    0.0519868951    0.0038641054
 O    0.6927269839   -0.6333890480    1.0331166463
 C   -1.4101798517   -0.4817474705   -0.1268530903
 C   -2.0990604248   -1.0950725352   -1.1210381714
 C   -3.3828060438   -1.3394988078   -0.5408551835
 N   -4.4888215912   -1.8842944436   -1.1684969264
 N   -3.4478414608   -0.9185365913    0.7044690160
 O   -2.1874403734   -0.3532435880    0.9627913358
 H    1.0324540649    1.9107815186    0.3375133493
 H   -0.4535751281    2.0919520182   -0.6267248896
 H   -0.5626622322    1.8326993570    1.1216401315
 H    0.5211563273   -0.1898658641   -0.9205077924
 H    0.1749369207   -0.5486243275    1.8421584986
 H   -1.7593701882   -1.3347178331   -2.1150122086
 H   -4.2748191825   -2.6300550270   -1.8146652539
 H   -5.2189227011   -2.1477601381   -0.5200457812