27

 C    0.0817401272    0.7150398602   -1.2957748688
 C   -0.2182936069    0.3899758552    0.1721703172
 C   -1.5703151946   -0.3341468637    0.3807668222
 C   -1.4038973641   -1.8193390188    0.0195149271
 O   -2.6379095657   -2.3271597683   -0.4753058702
 C   -2.2056822463   -0.0823531651    1.7916302647
 C   -2.6396784849    1.3947728210    1.8963798036
 C   -3.4686016652   -0.9450151447    1.9909140182
 C   -1.2106893641   -0.3938722805    2.9274632622
 H    1.0642749982    1.1859002889   -1.4024291354
 H    0.0765720141   -0.1800126384   -1.9267171689
 H   -0.6654118396    1.4053018906   -1.7023582213
 H    0.5924388516   -0.2257248109    0.5840969309
 H   -0.1967676646    1.3240813966    0.7407997675
 H   -2.2811635000    0.0643038372   -0.3564119139
 H   -0.6210676080   -1.9221874861   -0.7465864865
 H   -1.0640993126   -2.3894543579    0.8985309814
 H   -2.5273744932   -3.2670298134   -0.6469081823
 H   -3.3649190784    1.6461472122    1.1145102166
 H   -3.1174402856    1.5834056008    2.8639967936
 H   -1.7993433530    2.0897580360    1.8100310813
 H   -3.2428771376   -2.0137067160    1.9987062662
 H   -3.9427795644   -0.6931413218    2.9464391327
 H   -4.1967664388   -0.7759748310    1.1926062489
 H   -0.3254707096    0.2478311618    2.8868470940
 H   -1.6864104130   -0.2347311378    3.9012541862
 H   -0.8722361811   -1.4351101061    2.8990483328