14

 O    0.1095043817    1.4179591398   -0.0590434673
 C   -0.0369583983    0.0571689547    0.0481521800
 C   -0.4231484861   -0.7508414078    1.2515026464
 C   -1.6140653987   -0.1694091350    2.0549573734
 O   -2.0305345133    1.0837367911    1.4652171958
 C   -2.4752091153   -0.1504377202    0.8810528286
 C   -1.3476712173   -0.7380474839   -0.0252272409
 C   -1.5823816411   -1.7874574297   -0.9512358650
 N   -1.7850102348   -2.6416106141   -1.7079274716
 H   -0.5947962231    1.8156763270    0.4713527989
 H    0.7330410773   -0.4421511748   -0.5355426234
 H    0.1555533129   -1.5952955241    1.6038435477
 H   -1.8257431066   -0.3196993221    3.1050350596
 H   -3.5386034474   -0.2996501209    0.7466778079