18

 C   -0.0914651341    1.5312862558   -0.0816748216
 C    0.0010614170    0.0200474449   -0.0298664727
 C   -1.2373076867   -0.7081394206   -0.5154421662
 C    1.3341304680   -0.6243338199   -0.2592150648
 C    0.7398792025   -0.6332958514    1.1513390958
 C    1.3306419153    0.1439325029    2.1862643059
 C    1.8243335522    0.7978884562    3.0784197968
 C    2.3856216401    1.5355968525    4.0777673561
 N    2.8646936265    2.1668432400    4.9286310908
 H    0.8133208309    2.0091670326    0.3014974956
 H   -0.2402415426    1.8647106456   -1.1145421543
 H   -0.9378630356    1.8931021719    0.5121041688
 H   -1.4418797544   -0.4580668899   -1.5626302635
 H   -1.1214945330   -1.7941979750   -0.4486492428
 H   -2.1167158540   -0.4245906866    0.0728838969
 H    1.3782109361   -1.5808088788   -0.7686831598
 H    2.1941190865    0.0159579991   -0.4196082814
 H    0.3320727354   -1.5828931695    1.4868144604