16

 N   -0.0244035136    1.3095904360   -0.0211718462
 C   -0.0382385828    0.0444233814   -0.0114104913
 O    1.0764541236   -0.7630448563   -0.0144307409
 C    0.6841620863   -2.1411019228    0.0012121946
 C    1.2874716557   -2.8507285364    1.2319368995
 C    2.7421580190   -2.9120516749    1.2004552534
 C    3.9412890946   -2.9670140058    1.1575933589
 C   -0.8199599561   -2.0971135410    0.0044255840
 C   -1.2215282403   -0.8270746424    0.0027292830
 H    0.9353677660    1.6581547492   -0.0279754468
 H    1.0776135007   -2.6168237882   -0.9073058887
 H    0.9444696916   -2.3279594459    2.1324500282
 H    0.8735551074   -3.8664666649    1.2765960051
 H    5.0018322581   -3.0105573486    1.1285398083
 H   -1.4337717743   -2.9882117499    0.0111846871
 H   -2.2272241259   -0.4341029594    0.0065423520