19

 C    0.2198207379    1.5420301739   -0.2868887176
 C    0.0221958361    0.0582167261   -0.0403832961
 C    0.8687812403   -0.9886819949   -0.7782843768
 C    2.1245217711   -0.6602937850   -1.1438092616
 C    3.1077675142   -1.1099512735   -0.0639340475
 C    2.1017258573   -1.3811154018    1.0701458359
 C    0.8708442508   -1.9341480486    0.4390809522
 C    0.6619783040   -0.6828081785    1.2109918262
 O    0.0835068717   -0.6246479039    2.4694952169
 H    1.2798361530    1.8135973859   -0.2627394718
 H   -0.1828582648    1.8397592773   -1.2610105583
 H   -0.3059937870    2.1272267550    0.4757587517
 H   -1.0477191775   -0.1831304675    0.0108014050
 H    2.3538447154    0.2003095371   -1.7650158943
 H    3.7166580356   -2.0035180154   -0.2681271992
 H    3.8092074370   -0.2890898001    0.1335170392
 H    2.4371596398   -1.7727347775    2.0286002044
 H    0.4088423492   -2.9087867495    0.5280271826
 H    0.4205834559    0.1576327107    2.9194562694