23

 C    0.3307402016    1.4861178131   -0.2668635217
 C   -0.0096201855    0.0108340150    0.0120447743
 C   -1.5264524530   -0.1615072973    0.1332838509
 C    0.6018136317   -0.8744543400   -1.0902500947
 O    1.9918841517   -0.9762377526   -0.7874277119
 C    2.1746682436   -0.8021392648    0.6112293911
 C    0.7862881108   -0.5432769384    1.2360197890
 C    0.8334969658    0.3382837707    2.4822253477
 O    0.1638046235   -1.7943923738    1.5595000849
 H    1.4055672930    1.6439864426   -0.3938703591
 H   -0.1595600144    1.8066724028   -1.1919637475
 H   -0.0221154522    2.1418145628    0.5345084762
 H   -2.0170268462    0.1465047329   -0.7967977107
 H   -1.7950369568   -1.1973171214    0.3427801557
 H   -1.9319629834    0.4637569592    0.9361608544
 H    0.1329641084   -1.8679066085   -1.0915264235
 H    0.5063719453   -0.4376587011   -2.0897558607
 H    2.6259341406   -1.7034722876    1.0510539634
 H    2.8647224785    0.0350949673    0.7830227769
 H    1.2972250764    1.3081983155    2.2881776480
 H   -0.1748701791    0.5009178999    2.8733260472
 H    1.4187017971   -0.1538024770    3.2690046502
 H    0.7042598226   -2.2268051992    2.2285905799