18

 O   -0.0157959570    1.4489020230   -0.0144607532
 C    0.0531985963    0.0318742725   -0.0077961700
 C   -1.3724176731   -0.5037321206   -0.0167884116
 C   -1.4279746490   -2.0327704384    0.0183472278
 C   -2.8722847438   -2.5597531750   -0.0709288353
 O   -3.4922264937   -2.1671267348   -1.2646939580
 C   -2.8926333323   -4.0681438903    0.0606478612
 O   -3.3790118860   -4.7769077901   -0.7873871130
 H    0.8811964141    1.7944926069   -0.0352802017
 H    0.5969087235   -0.3467412558   -0.8891324395
 H    0.5868921825   -0.3370706108    0.8845874808
 H   -1.9070149979   -0.0888156615    0.8467576107
 H   -1.8849037006   -0.1412531856   -0.9128208046
 H   -0.8590776425   -2.4510121698   -0.8220374264
 H   -0.9666012788   -2.4087297125    0.9418601056
 H   -3.4323222395   -2.1651227258    0.7985667574
 H   -3.7755427581   -2.9893440341   -1.6950148601
 H   -2.4316390639   -4.4883582273    0.9783496699