22

 C   -0.0688960135    1.5427528896   -0.0822099906
 C   -0.0253028652    0.0139487231   -0.0076728139
 C   -1.4018905671   -0.5603804569   -0.3535049472
 N    1.0654434673   -0.5732487799   -0.8121247460
 C    1.7535936716   -1.1384896533    0.2271510552
 O    2.7689616735   -1.7837355427    0.2856942987
 C    0.7179073305   -0.6200034128    1.2596113441
 C    1.3183096048    0.3604157755    2.2691089196
 C   -0.0110089796   -1.7478871547    1.9927688686
 H    0.9177305555    1.9874833186    0.0581601644
 H   -0.4423075284    1.8611580147   -1.0619586849
 H   -0.7453305869    1.9525849748    0.6750943510
 H   -1.7354413766   -0.1791564261   -1.3251727888
 H   -1.3880224949   -1.6500551733   -0.4107984881
 H   -2.1486296345   -0.2613515432    0.3894762079
 H    1.2521806424   -0.5579239994   -1.8049744226
 H    1.9232179666    1.1372984166    1.7964523652
 H    0.5355205218    0.8475408405    2.8612071052
 H    1.9706789823   -0.1845814807    2.9580179574
 H    0.6795885320   -2.2308495673    2.6906395499
 H   -0.8581235874   -1.3617326870    2.5706226775
 H   -0.3820618344   -2.5213934860    1.3168285074