17

 N   -0.0107723757    1.3598062000    0.3037141995
 C   -0.0129892581   -0.0108463648    0.0632646643
 N   -1.1406222877   -0.7218141951   -0.0128650219
 N   -0.6671747044   -1.9941971825   -0.0501109162
 C   -0.9222758700   -3.2400773538   -0.7992036564
 C    0.6297688952   -3.4936569400   -0.6997350798
 C    0.6876233179   -2.0840764953   -0.1213563125
 C    1.1851723123   -0.8018017885   -0.0405479601
 N    2.4826342357   -0.2407634281   -0.0845182442
 H    0.7476460288    1.8240893280   -0.1816593354
 H   -0.9025577293    1.7862072481    0.0871299715
 H   -1.5928279802   -3.9418733646   -0.2964263040
 H   -1.2610178542   -3.0655595662   -1.8249424598
 H    0.9286284675   -4.3057293445   -0.0324995220
 H    1.1211170021   -3.6225250502   -1.6664792459
 H    3.1797992324   -0.9265531366   -0.3473288508
 H    2.7554574177    0.1453367443    0.8152044440