14

 O   -0.7931313249    0.7968183018    0.4594054412
 C    0.1974963384    0.8694746657   -0.2149881080
 C    1.3310616869    1.8814556449    0.0144079896
 C    1.3202981270    2.5566919536    1.4053830094
 C    2.5289557398    1.6499066274    1.7029123495
 O    2.5122825260    1.0987642282    0.3583547915
 C    1.5003834807    2.7103386852   -1.1644799902
 C    1.5940652527    3.3754600881   -2.1619349567
 H    0.4100912888    0.1677430039   -1.0480966624
 H    1.5314361976    3.6245084759    1.3867149290
 H    0.4090584821    2.3570179037    1.9685183130
 H    3.4737812012    2.1639977028    1.9053836263
 H    2.3691679269    0.8725279049    2.4574125187
 H    1.6918925768    3.9727956940   -3.0352396909