20

 C   -0.4903489290    1.4840449637    0.6195130358
 C   -0.0559730546    0.0332164357    0.5140467660
 C    1.2309410523   -0.4147365525   -0.2473496817
 C    2.0901255252    0.1525491103    0.9186886562
 C    0.9073646546   -0.6410714399    1.5408879715
 N    1.0565371742   -1.7352051498    0.4914722854
 C    2.2107577191   -2.6414394141    0.5753343932
 C    2.0399684573   -3.5918666568    1.6706332110
 C    1.9114497328   -4.3597936465    2.5858168602
 H    0.3207553415    2.1743230635    0.8631769670
 H   -0.9339983742    1.8152154131   -0.3258263599
 H   -1.2588920491    1.5913857149    1.3927326509
 H   -0.9003145932   -0.6193958253    0.2782750287
 H    1.4264376191   -0.3846435949   -1.3217088807
 H    3.0913903745   -0.2568877230    1.0503052232
 H    2.1147996364    1.2342421116    1.0592691138
 H    0.7204530755   -0.8850544996    2.5876543295
 H    2.2523377126   -3.1860197903   -0.3769678029
 H    3.1918989914   -2.1531412894    0.6903066711
 H    1.7955567536   -5.0468607005    3.3868894117