22

 C   -0.1078326741    1.6087689418    0.3191673366
 C    0.0183116789    0.1035412443    0.0706715675
 C    0.7200265222   -0.6270865902    1.2217040655
 C    0.8330058968   -2.1545634673    1.0261416606
 C    1.6547535853   -2.8612751717    2.1247788719
 C    0.6049091658   -3.3591573175    3.1446955041
 N   -0.5788835389   -3.5043180011    2.3181033713
 C   -0.5507834076   -2.8175326252    1.1341808579
 O   -1.4706961089   -2.7372130933    0.3458956995
 H    0.8737250225    2.0764331376    0.4595801521
 H   -0.5970606979    2.1099430865   -0.5217677003
 H   -0.7015347092    1.8141758648    1.2172571406
 H   -0.9686732250   -0.3399405713   -0.0901863590
 H    0.5827483111   -0.0704904434   -0.8552063606
 H    1.7343443954   -0.2237521501    1.3443567705
 H    0.1955650501   -0.4169105382    2.1650179369
 H    1.2366413289   -2.3495369344    0.0281867357
 H    2.1836815336   -3.7209137611    1.7032490856
 H    2.3978692487   -2.2085693160    2.5890447435
 H    0.8920477557   -4.3103655552    3.6042063978
 H    0.4482919344   -2.6328646253    3.9550908340
 H   -1.4465120577   -3.8942630539    2.6509286982