18

 C    0.2086295211    1.4344677424   -0.0645158035
 N    0.2601978297   -0.0186362771   -0.0760564379
 C    0.5024370532   -0.6492391089    0.9833043896
 C    0.5693742614   -2.1585492634    1.1096938504
 C    1.2286858463   -2.3585737864    2.4587779141
 C    1.5245219644   -3.6384054895    3.0981864959
 O    2.5643974117   -2.8657310357    2.4866502452
 C    0.9636336688   -1.0671543812    3.2164404654
 O    0.7445036372   -0.0724382292    2.2115809506
 H    0.9805290631    1.8239486715   -0.7383210518
 H   -0.7561646471    1.7586790331   -0.4707914427
 H    0.3452928605    1.8866994144    0.9237612477
 H   -0.4447384404   -2.5737643344    1.0949744045
 H    1.1358639495   -2.6092766144    0.2946929572
 H    1.5700258070   -3.7067642973    4.1850905624
 H    1.2673930805   -4.5666942751    2.5894553014
 H    0.0714146500   -1.1391819571    3.8519332067
 H    1.8215348431   -0.7760757116    3.8275978649