22

 C    0.0340099418    1.5105141433    0.2012257303
 C    0.0384498651    0.0048292361    0.0153589094
 O    0.6756258283   -0.5706604505    1.1671805118
 C    0.7619515181   -1.9268687036    1.1598916710
 O    0.3344977509   -2.6362314901    0.2740079045
 N    1.4110236819   -2.3569903518    2.2755410394
 C    1.5208214523   -3.7734002413    2.6096796426
 C    2.8137973451   -4.0122098890    3.3920656667
 C    0.2831350510   -4.2786840576    3.3638584457
 H    1.0537973130    1.8963796704    0.2880886419
 H   -0.4439888849    1.9898668237   -0.6582632900
 H   -0.5173850910    1.7914643565    1.1031923043
 H   -0.9758767021   -0.3972898105   -0.0739005107
 H    0.5862506938   -0.2918773432   -0.8848543138
 H    1.6084771136   -1.6688826627    2.9848764805
 H    1.5757460943   -4.2948077338    1.6496876693
 H    2.7999769226   -3.4743356890    4.3482287140
 H    2.9353116338   -5.0757867928    3.6159580175
 H    3.6850228227   -3.6753583658    2.8235437755
 H   -0.6181105799   -4.1056952343    2.7700996748
 H    0.3619166477   -5.3523088046    3.5637632015
 H    0.1714124119   -3.7625371394    4.3244497236