18

 C    0.2458736063    1.0977190647    0.3582969476
 O   -0.3981955467    0.0340353456   -0.3153397575
 C    0.3932436849   -0.5349227642   -1.3018429784
 C    1.4858500923   -1.5427764335   -0.9985610832
 C    0.9828670793   -2.4797196792    0.0939156803
 O   -0.2400621835   -2.7597684722   -0.6317643894
 C    0.1921114663   -1.9508063936   -1.7271538604
 C   -0.1419609446   -2.4327779495   -3.1013309660
 H    1.1855162862    0.7715354654    0.8267499885
 H    0.4712411764    1.9320630727   -0.3236312943
 H   -0.4389874004    1.4499562745    1.1329238411
 H    0.6524499665    0.1388633775   -2.1233773051
 H    2.5083594851   -1.4524847041   -1.3425566140
 H    1.5823001385   -3.3901943971    0.2008284648
 H    0.7854313076   -2.0437719775    1.0792068728
 H   -1.2292368316   -2.4617959163   -3.2355366076
 H    0.2762534991   -1.7639935749   -3.8588236784
 H    0.2481863983   -3.4414890584   -3.2678532606