15

 N    0.0176038755    1.3846097812    0.1392300223
 C   -0.0512411089    0.0010503329    0.0506819662
 C   -1.2109520938   -0.7180761774    0.0318595265
 N   -1.1806773226   -2.0877033757   -0.0076662167
 C   -0.0028672337   -2.7770357832   -0.0166331602
 C    1.1946444690   -2.1205219327   -0.0001158840
 O    2.3985041090   -2.7569258381   -0.0224679509
 C    1.2564569579   -0.6673299652    0.0231698807
 O    2.3039114698   -0.0144811152    0.0112396142
 H    0.9660320678    1.6864968464   -0.0623335248
 H   -0.6856369583    1.9019539170   -0.3662999805
 H   -2.1939049776   -0.2646861239    0.0501486135
 H   -2.0466093457   -2.5971624733   -0.0150188321
 H   -0.0810954562   -3.8579609729   -0.0416154634
 H    2.2582942178   -3.7089459600   -0.0557382009