18

 C    0.0378736410    1.2942830418   -0.1612964571
 O   -0.0530948341    0.0145758511    0.4273886743
 C   -1.2614979253   -0.6334774077    0.1707561335
 C   -1.5600888881   -1.2170578749   -1.2632879663
 C   -1.7465296158   -2.5905376205   -0.6099613961
 C   -0.4607426976   -3.0254550649    0.0562978368
 C    0.8402455893   -2.7274300990   -0.4877876101
 N    1.8823668645   -2.5407690053   -0.9533746088
 C   -1.3642149946   -2.0320494444    0.7603332761
 H    1.0096535477    1.7074447902    0.1156728683
 H   -0.0265736367    1.2466557224   -1.2577944650
 H   -0.7554233358    1.9646150699    0.2055594429
 H   -2.1109397584   -0.0157325815    0.5013302114
 H   -2.4707300410   -0.8117568548   -1.7067716922
 H   -0.7418043584   -1.1519610186   -1.9850223879
 H   -2.5088666061   -3.3180069327   -0.8575107534
 H   -0.5115239962   -4.0157927039    0.4998465361
 H   -1.7524297444   -2.2725744373    1.7423562874