18

 N    0.2932841000    0.8275503951   -0.9741745724
 C    0.0422913105    0.1343435140    0.0614624847
 O    0.9393112263    0.0148973904    1.1028184811
 C    1.6706936714   -1.2119324219    1.2459085572
 C    0.8193611115   -2.4750970683    1.3450131544
 O   -0.0588209909   -2.5193325257    2.4489540809
 C   -0.9956830121   -1.4389672846    2.5658166526
 C   -1.7507429915   -1.1423163147    1.2906198128
 C   -1.2850191214   -0.4803078679    0.2239136233
 H    1.2444705485    1.1984235131   -0.9156747419
 H    2.3694537115   -1.3238325802    0.4033904516
 H    2.2508465132   -1.0762831663    2.1624105664
 H    0.2821100579   -2.6397801174    0.4007816913
 H    1.5020306262   -3.3215633712    1.4798497767
 H   -1.6937629757   -1.7701277189    3.3387332367
 H   -0.4902184221   -0.5373957319    2.9254741244
 H   -2.7615366978   -1.5374079723    1.2283544171
 H   -1.9216367755   -0.3365883513   -0.6432642472