17

 O   -0.0802837132    1.3922395517   -0.0168573654
 C   -0.0114006614    0.0095823660    0.0244045415
 C    0.3263228621   -0.8117731715    1.3179968841
 C   -0.3929091873   -1.9197467832    0.4879508967
 C   -1.3341644971   -0.7966061087   -0.0378775372
 N    0.4778320902   -2.1424075972   -0.6989685918
 C    0.8328105624   -0.7313380443   -1.0348209859
 C   -0.8923441317   -3.1322236980    1.0980315406
 N   -1.2812903221   -4.0922355191    1.6106608057
 H    0.8140688138    1.7501232375   -0.0389444307
 H    1.3733322214   -0.9897925579    1.5792323974
 H   -0.2466806298   -0.4738970438    2.1822365204
 H   -2.0577210243   -0.4697208841    0.7084437643
 H   -1.7990619873   -0.9660036378   -1.0099409504
 H    1.3033577992   -2.6643088713   -0.4202190920
 H    0.5286401894   -0.4759791082   -2.0548852635
 H    1.9050658658   -0.5279495600   -0.9273157237