17

 O    0.2035093135    1.3965580030   -0.1584070232
 C   -0.0287284494    0.0377820488   -0.0171930159
 C   -0.4459903490   -0.6972866858    1.2503817163
 C   -1.3878528992    0.0178172639    2.2324009679
 C   -2.7514783852   -0.6887562975    1.9985983021
 C   -2.5583107454    0.0746756168    0.6657638685
 O   -1.9093488397    1.1429319883    1.4335064572
 C   -1.3628725673   -0.6671613012    0.0206525880
 O   -1.6384470096   -1.8110579526   -0.7229271919
 H   -0.4769882877    1.8271738733    0.3797107214
 H    0.7082089715   -0.5270179144   -0.5844590795
 H    0.0842420076   -1.5886517785    1.5650692681
 H   -1.0201697089    0.3112360360    3.2148626947
 H   -2.7764620828   -1.7796512138    1.9701240868
 H   -3.5527519118   -0.2709443947    2.6104943291
 H   -3.3774529801    0.4112627433    0.0303448920
 H   -1.7310796464   -1.5532806150   -1.6467135515