16

 C   -0.2250634758   -0.2794519493    1.2801474105
 C   -0.1342598679    0.5218347997    0.3886369625
 C    0.0002232560    1.4368598900   -0.7504580618
 N    1.2626473652    2.1710350738   -0.8729496253
 C    1.3996662425    3.3803417492   -0.0488346756
 C    1.4770746784    3.1700415546    1.4107906832
 C    1.5432514269    2.9989811407    2.5978897963
 C    2.5692007305    4.1429832799   -0.5065200470
 C    3.5300880135    4.7601310533   -0.8762346494
 H   -0.3077753208   -0.9647682914    2.0870051703
 H   -0.1332309633    0.8570749796   -1.6726837076
 H   -0.8143486823    2.1712467534   -0.7370329289
 H    2.0520059132    1.5551726913   -0.7094802189
 H    0.5041253876    3.9864452743   -0.2511678982
 H    1.5959933027    2.8350406824    3.6458491236
 H    4.3780049238    5.3090519885   -1.2042595137