19

 C    0.2497840353    1.3061796187   -0.3828477003
 O    0.3810952663   -0.0779525084   -0.1313472167
 C    0.8490591434   -0.4848904509    1.1220154804
 C    1.9755623660    0.2952795004    1.8631315337
 O    1.2058829364    0.2793534066    3.0835567054
 C    0.0196559368   -0.1619934289    2.3958319159
 C    1.1793549444   -1.9603863615    1.0362512580
 C    0.7213594832   -2.8244468677   -0.0557520784
 O    2.0751401471   -2.3608443025    0.0046087475
 H    1.2235306893    1.8062405670   -0.4634393388
 H   -0.2652405430    1.3940894706   -1.3421327071
 H   -0.3468484782    1.8220356862    0.3813713945
 H    2.9382660241   -0.2154050039    1.9661025982
 H    2.1453836801    1.3160818882    1.5011792103
 H   -0.7099669038    0.6467783904    2.2597276384
 H   -0.4693765544   -1.0028087542    2.9009090101
 H    1.3872187089   -2.4069037455    2.0100984127
 H    0.5844016258   -3.8893169339    0.1274323997
 H    0.1239102923   -2.3929004107   -0.8531425333