19

 C    0.0834985309    1.4324122947   -1.0888693398
 O    0.0910709058    0.0452430049   -1.3591889534
 C    0.7113608418   -0.7150683028   -0.3319245647
 C    0.6685054257   -2.2002306796   -0.6742961747
 C   -0.4936374998   -2.7295856818   -1.5262697404
 C    0.8779203773   -2.6438245635   -2.1269726295
 O    1.2144210620   -1.7445823096   -3.1268389881
 C    1.1943057635   -3.0302261765    0.3709017226
 C    1.6459895508   -3.7117694421    1.2544247226
 H   -0.4608471114    1.6509085849   -0.1589660510
 H    1.1039384364    1.8320960097   -0.9983865212
 H   -0.4215840505    1.9236871434   -1.9230629214
 H    1.7575645267   -0.3952276317   -0.2057520441
 H    0.1926163722   -0.5397989527    0.6230563016
 H   -0.9010969685   -3.7012445461   -1.2718801863
 H   -1.2175702603   -1.9852046111   -1.8382535606
 H    1.4207524163   -3.5738352890   -2.2572204398
 H    0.7998289301   -0.8991551375   -2.9010660340
 H    2.0441607611   -4.3212032035    2.0271187523