18

 N   -0.0488270522    1.3117306652   -0.2734782598
 C   -0.0139911946    0.0738721092   -0.0265721511
 O    1.1268319916   -0.6787061387    0.1371831613
 C    0.6921095991   -1.9893541356    0.5738492639
 C    0.0647594427   -1.8095296567    1.9818977599
 C   -1.3827249186   -1.5800780504    1.5066824330
 C   -1.6256791713   -2.8878307727    0.7026637040
 C   -0.5880391702   -2.2705195755   -0.2605258181
 C   -1.1692404426   -0.8711636408    0.1006705589
 H    0.8985601469    1.6924977539   -0.3214492828
 H    1.5364570010   -2.6690420382    0.4789963410
 H    0.1481473517   -2.6992222150    2.6124410406
 H    0.5218351223   -0.9641449068    2.5004576316
 H   -2.1048865981   -1.1925481715    2.2232077238
 H   -1.3986582623   -3.8392248721    1.1925119164
 H   -2.6175296879   -2.9301066156    0.2467025234
 H   -0.4472604716   -2.5952603956   -1.2908079017
 H   -2.0864744859   -0.5538392433   -0.3880389043