16

 C   -0.7291781664    1.3996141039    0.3493642313
 C   -0.2527716727   -0.0585736183    0.2150982826
 N   -0.2237391997   -0.4357632175   -1.1907292654
 C    0.8481643378   -0.8565419813   -1.7228314724
 N    0.8580915409   -1.1984554553   -3.0641757455
 C    1.9731022291   -1.6637105800   -3.7325679051
 O    3.0574124922   -1.8232379085   -3.2306852554
 C    1.0193397685   -0.2534742420    0.9407121795
 N    2.0298349857   -0.4129695113    1.4790151361
 H   -0.0027459413    2.0794548172   -0.1025122489
 H   -1.6825138018    1.5072186393   -0.1721510690
 H   -0.8581920812    1.6690278344    1.4004575211
 H   -0.9959554546   -0.7032284702    0.7030471396
 H    1.8141814187   -0.9928058977   -1.2322582553
 H   -0.0137960646   -1.0943547910   -3.5646070902
 H    1.7489882294   -1.8744707317   -4.7946507830