16

 C    0.1534767432    1.5715628414   -0.0935937306
 N    1.5450664995    1.4714380428    0.4184200520
 C    1.4875600529   -0.0149870037    0.4767028002
 C   -0.0328204008    0.0405424205    0.0594556047
 N    0.3516569152   -0.7269393042   -1.1433018211
 C    0.1932807636   -1.1529841389   -2.4269033147
 N    1.3684736610   -1.5011415953   -2.9234262870
 C    2.3236322950   -1.2400482913   -1.9606743020
 C    1.6890408384   -0.7603707740   -0.8401019918
 H   -0.4841404225    2.1658285344    0.5691878523
 H    0.0344447238    1.9315198035   -1.1206969370
 H    2.2577187084    1.8310288406   -0.2070888598
 H    1.8720114927   -0.4517597188    1.3984236486
 H   -0.8695902871   -0.3563282135    0.6305099563
 H   -0.7566804232   -1.2430521403   -2.9298928657
 H    3.3679538900   -1.4366305933   -2.1438654844