18

 C    0.0060012314    1.4547636865   -0.0272488393
 N    1.2178305778    0.5939807899    0.0571116850
 C   -0.1140429560   -0.0074141854   -0.0133056557
 C   -0.5782788097   -0.9380847441    1.1101836353
 N    0.2427023250   -2.1641705310    0.8808247233
 C   -0.5338675973   -2.2968575897   -0.3588378850
 C   -1.7586745550   -1.6549968777    0.3230281109
 N   -2.1149275694   -0.7923146950   -0.8375591027
 C   -0.6388873979   -0.8818640037   -1.1398323499
 H   -0.2003534902    2.0292503170    0.8715199766
 H   -0.1975946587    1.9808524157   -0.9562488872
 H    1.6679107636    0.5578880201   -0.8552197896
 H   -0.6601518220   -0.5565446291    2.1263615467
 H    1.2333652680   -1.9489235864    0.7616275533
 H   -0.5156777903   -3.2287731483   -0.9249248624
 H   -2.5319381396   -2.1787216993    0.8806452732
 H   -2.6110379717   -1.3894197478   -1.5009451621
 H   -0.3063146782   -0.7030972618   -2.1623431804