15

 C   -0.1733277872    1.5702124710    0.0437994374
 C    0.0218040059    0.0648084677   -0.0090320826
 N    1.3349823414   -0.4082300430   -0.4661224069
 C    0.9658332957   -0.6657797149    0.9347361264
 C    1.7556787095    0.0597185922    1.9716994315
 O    1.8052763419   -0.2859148895    3.1251481347
 C   -1.1422109136   -0.6859218285   -0.4125170925
 C   -2.1151586809   -1.2929764530   -0.7751115599
 H    0.7675465196    2.0754750384    0.2667714913
 H   -0.5332083905    1.9291727918   -0.9246235441
 H   -0.9133900056    1.8371384379    0.8033726993
 H    1.2390738919   -1.2593737714   -1.0140525191
 H    0.6535329793   -1.6625270974    1.2334622495
 H    2.3104044467    0.9455679582    1.5957851170
 H   -2.9750305940   -1.8328149197   -1.0874123418