21

 C    0.1607657837    1.5188385983   -0.0796714135
 C   -0.0336416225    0.0225768285    0.0329194709
 C   -1.3453975774   -0.5168087552   -0.5283750411
 C   -2.4487985223   -0.6614399076    0.5301984597
 O   -2.3353340424   -1.8277247400    1.3237132564
 C   -1.3028652660   -1.8403456167    2.2916096453
 C    0.1045710834   -2.0049278164    1.6979868599
 C    0.6562879246   -0.7213877546    1.1016030919
 O    1.1451770585   -0.7531185423   -0.2456306560
 H    1.0978580288    1.8284481721    0.3894056040
 H    0.1876507883    1.8206005285   -1.1327122283
 H   -0.6638428970    2.0583860623    0.3999553810
 H   -1.7013518968    0.1511885203   -1.3223984282
 H   -1.1716183694   -1.4948798361   -0.9859118031
 H   -2.4846540564    0.2363398561    1.1709169335
 H   -3.4209818376   -0.7496641412    0.0345101366
 H   -1.3496151161   -0.9309583667    2.9150022781
 H   -1.5288822580   -2.6945162590    2.9380636248
 H    0.7814588020   -2.3604918962    2.4837919649
 H    0.0713774376   -2.7806818374    0.9271561787
 H    1.2849612852   -0.1357782869    1.7758891644