15

 N   -0.1462072092    1.4308445127    0.1175045236
 C    0.0286738220   -0.0288085232   -0.0148005521
 C    0.7818149081   -0.4332680722   -1.2152213101
 C    1.3887501430   -0.7193678888   -2.2128457091
 C    0.6503478776   -0.5801134124    1.2293435059
 C    0.2658533507   -1.4578251842    2.1854576106
 N    1.2753357985   -1.5823436075    3.1339473432
 C    2.1998490677   -0.7867060552    2.7108399091
 O    1.9061400724   -0.1387361816    1.5590767293
 H    0.7731537464    1.8569747652    0.2043446871
 H   -0.5373518808    1.7890660619   -0.7500977758
 H   -0.9736076098   -0.4708254166   -0.0725733793
 H    1.9283619477   -0.9818271126   -3.0893079575
 H   -0.6585241298   -2.0076117460    2.2627680135
 H    3.1608813156   -0.5760777596    3.1528637417