18

 C   -0.1015376704    1.5644600946    0.0594525617
 C    0.0486582491    0.0491665464    0.0108091904
 O   -1.2161134918   -0.5738918534   -0.1614595119
 C    1.1360862883   -0.5533964286   -0.9600269001
 C    1.7658959989   -1.2654241172    0.2452876144
 O    2.2173762402   -2.5727538303    0.2289779204
 C    2.1960242315   -0.2713506961    1.2830477448
 C    0.7351968266   -0.6621387075    1.1831589195
 H    0.8532240292    2.0656312463    0.2408847197
 H   -0.4927935091    1.9424834107   -0.8936828166
 H   -0.8009194663    1.8489454491    0.8514501418
 H   -1.6129745351   -0.2175032816   -0.9640431187
 H    0.6639155332   -1.2585681093   -1.6466987344
 H    1.7751873266    0.1429808281   -1.5150098995
 H    3.1542592664   -2.5663771769    0.0039416797
 H    2.7039290089   -0.7123155763    2.1352247663
 H    2.5427869363    0.7252572514    1.0182368338
 H    0.1981486073   -1.1089822094    2.0104245485