21

 C   -0.0352382076    1.3333805812    0.0638919253
 O   -0.0023025544   -0.0801979850    0.0197544429
 C    0.6287469606   -0.5853952831   -1.0991052242
 C    0.0153348248   -0.4593098081   -2.5289551275
 C    0.7323341853   -1.7796624524   -2.8059791518
 C    0.7997727251   -2.1341525440   -1.3372349385
 C    2.0779993667   -1.7641998383   -2.0539977329
 C    3.2225772339   -2.6490040398   -2.4483615941
 C    2.1612327852   -0.4145068210   -1.3351232948
 H    0.9764998790    1.7635308463    0.0771738153
 H   -0.5818242550    1.7551450343   -0.7918277420
 H   -0.5507724584    1.6130599297    0.9850834618
 H   -1.0697892689   -0.5946698491   -2.4992039423
 H    0.2711728920    0.4215965951   -3.1293067816
 H    0.5762420458   -2.4567982772   -3.6364409707
 H    0.4937313403   -3.0056615454   -0.7772886203
 H    2.8633939155   -3.6134039661   -2.8241734773
 H    3.8277693824   -2.1905536198   -3.2396091476
 H    3.8835114809   -2.8494572977   -1.5974536463
 H    2.5086889745    0.4637361532   -1.8931585956
 H    2.7126607723   -0.5058338228   -0.3940555777