19

 C   -0.7212700848    1.3110417503    0.1693466600
 C    0.0773941438    0.0343211113    0.0204676786
 C    0.9118647142   -0.1628753217   -1.2712051521
 C    2.0837720298   -0.2226214067   -0.3093925291
 O    1.2865373889    0.0427797690    0.8394347286
 C    3.2373666875   -1.1874653962   -0.3469836165
 O    3.4166449414   -1.9787934503   -1.4838728325
 C    3.4695192594    0.3150871183   -0.4792163591
 O    3.7799172637    0.7919945258   -1.7656890237
 H   -0.1152768968    2.1816090269   -0.0996338318
 H   -1.6039969091    1.2848189086   -0.4792900389
 H   -1.0600215173    1.4324424067    1.2030242119
 H   -0.5366320223   -0.8382642991    0.2766208967
 H    0.7280972463   -1.0788396288   -1.8345559663
 H    0.9137632219    0.6952133463   -1.9466524820
 H    3.5432036449   -1.6834689808    0.5700207324
 H    3.5989549876   -1.3645047801   -2.2085027719
 H    3.9102357962    0.8561820818    0.3566468051
 H    4.7400129148    0.8025502987   -1.8529236397