19

 O   -0.6711916826    0.3603529172    0.1677640733
 C   -0.0944799134    1.4166407507    0.1724277552
 C    1.3259914906    1.6304542145   -0.3137246812
 C    1.3956081351    2.7603629374   -1.3261231641
 C    1.4784620817    4.2074115065   -0.8863890188
 C    2.6471487042    3.5691280107   -1.5887535572
 C    3.9607936888    3.3141997769   -0.8609813928
 C    4.8398679234    4.4801744548   -0.8784808960
 C    5.5521080962    5.4476093335   -0.9088996647
 H   -0.5915351015    2.3425579556    0.5436203503
 H    1.9313766229    1.8738089923    0.5698585979
 H    1.6942882850    0.6846695059   -0.7235709827
 H    0.7904406236    2.5750241680   -2.2101262205
 H    0.8907672678    4.9522415663   -1.4106370723
 H    1.5868689331    4.3998921574    0.1771067951
 H    2.7915493882    3.8609118254   -2.6247836665
 H    3.7730923066    3.0260338831    0.1801172180
 H    4.4794045530    2.4626294744   -1.3214711082
 H    6.1862255573    6.2989403393   -0.9278029947