14

 C   -0.0160758901    1.3610626542    0.0096512016
 O    0.0297412532   -0.0724064312   -0.0449485738
 C    0.6406551959   -0.5765173029   -1.1179469024
 O    1.1366033195    0.0594685038   -2.0081164158
 C    0.6175958866   -2.1167765822   -1.0487319116
 O    0.1217285845   -2.7527610114   -0.1585168368
 O    1.2284494628   -2.6208887501   -2.1217644794
 C    1.2742845655   -4.0543580855   -2.1763548013
 H    0.9953325828    1.7748368766    0.0205320241
 H   -0.5507645632    1.7588878012   -0.8564173996
 H   -0.5417903996    1.6034080803    0.9322700572
 H    1.8091350899   -4.4521597258   -1.3103747886
 H    0.2628834710   -4.4681537424   -2.1870510941
 H    1.7998453613   -4.2967048047   -3.0990609194