19

 C   -0.0563031294    1.5164638435   -0.1833368244
 C    0.0590876714    0.0225005272    0.0202388739
 C    1.3325852950   -0.7507064940   -0.1087493736
 O    2.4574252533   -0.0014803333    0.3667311526
 C    1.9326315563   -0.0524662436    1.7384752308
 C    2.7808685034   -1.0165295268    2.5679069297
 C    1.8683715109    1.2559520472    2.3830995566
 C    1.8414843231    2.3061944228    2.9676299983
 C    0.6315498244   -0.6980281098    1.2317873231
 H    0.8868072876    2.0179522562    0.0363854059
 H   -0.3206553554    1.7309512174   -1.2245353888
 H   -0.8310773263    1.9488366144    0.4575233384
 H   -0.7850088437   -0.5480306442   -0.3672181878
 H    1.5319006557   -1.5584144305   -0.8038716578
 H    3.7974252167   -0.6275163447    2.6652038479
 H    2.3550041095   -1.1336215768    3.5692326426
 H    2.8175957318   -1.9930212477    2.0781526838
 H    1.8036529011    3.2433342646    3.4664082293
 H    0.0896422148   -1.4570977919    1.7809935596