21

 C    0.0248358694    1.5511461746   -0.1301006239
 C    0.0199744641    0.0408914702    0.0617913982
 O    0.5916946251   -0.5120531493   -1.1309580985
 C    1.0940532142   -1.8378786621   -1.0090717978
 C    1.6781133537   -2.0430897504    0.3816293603
 C    2.2724428356   -0.7243123424    0.9092944639
 C    0.7940115996   -0.4693532785    1.2938062873
 C    0.4364484457    0.1848736622    2.6068789309
 O    0.5712555257   -1.9208746565    1.3179237346
 H    1.0463118135    1.9449179699   -0.1286053111
 H   -0.4296480889    1.7960627748   -1.0935864139
 H   -0.5459932619    2.0504772665    0.6572785273
 H   -1.0145751829   -0.3221235320    0.1767642804
 H    0.2990216961   -2.5817798404   -1.1709703063
 H    1.8509267648   -1.9537821823   -1.7935163404
 H    2.2245195711   -2.9836804103    0.4917295929
 H    2.8977168135   -0.8747525270    1.7906054435
 H    2.7506504703   -0.0496266097    0.1977024517
 H    0.7764241955    1.2243415619    2.6336182230
 H   -0.6468393573    0.1722194103    2.7694377364
 H    0.9101922629   -0.3591554394    3.4282761512