19

 C   -0.3666214044    1.4302759463    0.0068278031
 C   -0.0400833071   -0.0448336503    0.0320519162
 C    1.3431725218   -0.5337963922   -0.3122607621
 C    0.8482253167   -0.6513192432    1.1112057135
 C    1.4272363105    0.1580464106    2.2077452627
 C    2.6320210008    0.7927611858    2.2470650599
 O    2.8161432287    1.4243519436    3.4384117180
 C    1.7057195027    1.1837967758    4.1834508433
 C    0.8245500670    0.4199703840    3.4911509962
 H    0.4729062743    2.0279986292    0.3728317718
 H   -0.5986828657    1.7623073694   -1.0111622541
 H   -1.2330659997    1.6573748358    0.6379854628
 H   -0.8557386154   -0.6886334131   -0.2872679668
 H    1.4559515815   -1.4417630757   -0.8943240636
 H    2.0941152742    0.2210787617   -0.5224709579
 H    0.5530957999   -1.6516180389    1.4192397637
 H    3.4436016692    0.8758491558    1.5436925658
 H    1.6990091039    1.6221448365    5.1678594133
 H   -0.1398068689    0.0776611589    3.8338993543