16

 O    0.0058736739    1.4385991526    0.1640622701
 C   -0.0074035055    0.0684439659   -0.0400230890
 C    0.8267504585   -0.5318916648   -1.1655474512
 C    0.0244213648   -1.7821288636   -1.5934368115
 O   -1.3077730011   -1.6375788355   -1.0560867493
 C   -1.2909170014   -0.6757833394   -0.0639191881
 C   -0.3503341770   -0.8414040409    1.1564242437
 C    0.3644710644   -2.0461304781    1.4415228854
 N    0.9591190816   -3.0152987504    1.6617606644
 H    0.8476652457    1.6807670676    0.5672158627
 H    0.8732835284    0.2162919480   -1.9619219810
 H    1.8475137964   -0.7899062576   -0.8699834477
 H   -0.0677187639   -1.8787785223   -2.6779801483
 H    0.4710706102   -2.6972145311   -1.1956769036
 H   -2.2542491005   -0.2146038425    0.1177378849
 H   -0.6859293746   -0.2910556280    2.0299880084