13

 C    0.0592192692    1.3687623510    0.0093929006
 N    1.3122139041    1.8377169369   -0.0001856573
 N    2.0617385494    0.7170865182   -0.0138736440
 C    3.4112525731    0.6340082020   -0.0275595021
 N    4.0198493068   -0.5162508406   -0.0400141125
 C    3.2187933425   -1.6270159107   -0.0384447767
 N    1.9099899020   -1.6610752725   -0.0258242213
 C    1.2928008390   -0.4606631607   -0.0130004803
 C   -0.0242733248   -0.0346384436    0.0023033991
 H   -0.7575875186    2.0764585031    0.0213803521
 H    3.9530882705    1.5750751636   -0.0275449692
 H    3.7430423978   -2.5779490055   -0.0489488368
 H   -0.9034361909   -0.6555191213    0.0074057982