21

 O    0.0770548515    1.4057848526   -0.1174639132
 C    0.0248591134    0.0166692380    0.1452990564
 C   -1.4043603555   -0.5280820816    0.0814042018
 C   -1.9860441706   -0.5933344377   -1.3600284380
 O   -1.3128515887    0.2483307706   -2.2814488152
 C   -1.6953165874   -2.1209760383   -1.4062800415
 C   -1.5080496415   -2.0645657058    0.1159945298
 C   -0.7837518899   -3.0334955927    1.0031834484
 C   -2.2827516918   -2.8700300644    1.1179448386
 H   -0.2585405005    1.5107921182   -1.0164363602
 H    0.6750647487   -0.5493443166   -0.5396743993
 H    0.4229461810   -0.1267236431    1.1560322538
 H   -2.0231679169    0.0179244397    0.7997439431
 H   -3.0639103074   -0.3883940124   -1.3648154566
 H   -1.7165725846    0.1531878952   -3.1491204289
 H   -2.4836119222   -2.7704144594   -1.7973839383
 H   -0.7620410690   -2.3239957223   -1.9413895896
 H   -0.4003794313   -3.9450904080    0.5555605898
 H   -0.1653846091   -2.6394631148    1.8033505150
 H   -2.6748363848   -2.3604865375    1.9928395179
 H   -2.9136500934   -3.6737045595    0.7506476962