21

 C   -0.2482095243    1.4700897792    0.1435354804
 C    0.0408506528   -0.0403431642    0.0070175841
 C    0.7755060209   -0.3996081281   -1.3050982093
 C   -0.0251833076   -0.1057450983   -2.5689299273
 O    0.7100991340   -0.6311642963   -3.6640428712
 C    0.7985116698   -0.5201920641    1.1634353926
 C    1.4352118001   -0.8888561348    2.1183519456
 C    2.1963805740   -1.3986418669    3.2585517523
 O    1.6567045228   -2.5913030974    3.8143354034
 H    0.6826484151    2.0442920924    0.1021275911
 H   -0.9048572227    1.8200397807   -0.6579260496
 H   -0.7345094001    1.6830518067    1.0987673217
 H   -0.9255524062   -0.5662000749    0.0039830222
 H    1.7308334340    0.1355004228   -1.3490312405
 H    1.0139552029   -1.4681056262   -1.3009892484
 H   -1.0209264341   -0.5757676620   -2.4950916139
 H   -0.1838654782    0.9768365494   -2.6858775182
 H    0.2440310280   -0.4070031073   -4.4746626120
 H    3.2484861448   -1.5379736890    2.9615588358
 H    2.1947868980   -0.6658181532    4.0733413309
 H    1.5274095461   -3.2104592985    3.0884219602