23

 C    0.5825216434    1.6631432757   -0.1664899741
 C    0.1235602685    0.2459023681    0.1634508976
 C    0.7752863058   -0.8595845168   -0.7342068754
 O    1.2974801963   -0.5177467550   -1.9955111120
 C    1.7361428310   -1.2155299392    0.4258431751
 C    0.7984231355   -0.4444552058    1.4060614081
 C    1.4751005565    0.4351704623    2.4539945325
 C   -0.1993115228   -1.3889110508    2.0781423483
 O    0.5083031346   -2.2338735676    2.9750663512
 H    1.6744207175    1.7585400835   -0.1870703481
 H    0.2073045094    1.9610852122   -1.1503884068
 H    0.2129321890    2.3831416487    0.5698183820
 H   -0.9726461687    0.2260369553    0.1811060055
 H    0.0683521564   -1.6689931890   -0.9337356077
 H    1.9947911830    0.1328417146   -1.8653152994
 H    1.9247846484   -2.2697403184    0.6389489133
 H    2.7004205262   -0.7074822897    0.3110499076
 H    2.2205257770    1.0995361676    2.0086312169
 H    0.7431638821    1.0586533697    2.9817957808
 H    1.9764142378   -0.1896140574    3.1979981645
 H   -0.9579589688   -0.7902152230    2.6100745922
 H   -0.7285352544   -1.9847250566    1.3179588133
 H   -0.1218558138   -2.8278474084    3.3924710747