14

 C    0.0265363254    1.5413867537    0.0026415147
 C    0.0582796992    0.0267290680   -0.0081427021
 O    0.7467590133   -0.4400716762   -1.1457519352
 C    1.3980223100   -1.6442602275   -0.7697965731
 C    1.5520454068   -1.5274883915    0.7406132783
 O    2.2027747186   -2.1762173701    1.4951305790
 O    0.7691442966   -0.4689577160    1.1290535885
 C   -1.3188535415   -0.5521135270    0.0237555771
 N   -2.3842061337   -0.9973489072    0.0221661498
 H    1.0541867107    1.9094642830    0.0118767305
 H   -0.4831075238    1.9010662359   -0.8936926795
 H   -0.5031982480    1.9007072724    0.8867786478
 H    0.8042126986   -2.5342674625   -1.0190051478
 H    2.3674566677   -1.7047658350   -1.2666267779