22

 C    0.1789743858    1.5021000037   -0.2204182515
 O   -0.3049624825    0.2399795522   -0.6269364062
 C    0.6916091091   -0.5982383282   -1.1468782573
 C    1.6696994809   -1.3322046174   -0.1770802529
 C    1.4613644502   -2.6324053332   -1.0098376966
 C    0.2179760491   -1.9754141995   -1.6164175390
 C   -1.1894192472   -2.4400016912   -1.5710687278
 N   -0.4605108885   -2.3461862313   -2.8397740690
 C   -0.8533739241   -1.2615281408   -3.7329092240
 H    0.9096453689    1.4174422656    0.5973407721
 H    0.6555822956    2.0411491383   -1.0541651503
 H   -0.6777868413    2.0812129743    0.1320028915
 H    1.2511855063   -0.0743771570   -1.9406746905
 H    2.6864145245   -0.9442407565   -0.0925982764
 H    1.2242222231   -1.4112379863    0.8178855555
 H    2.2483993783   -2.7885364936   -1.7532744862
 H    1.3118436828   -3.5610803224   -0.4556214312
 H   -1.4234161600   -3.4474180306   -1.2346389069
 H   -1.9479946671   -1.6893532998   -1.3571238611
 H   -1.1549853468   -0.3436321383   -3.2050446340
 H   -0.0174295061   -1.0202133144   -4.3982185881
 H   -1.6914057211   -1.5957363635   -4.3525466801