18

 O   -0.0184095666    1.4202421168   -0.0487067333
 C    0.0373910968    0.0023929799   -0.0005336422
 C    0.5809049945   -0.5694571442    1.3438886900
 C   -0.6687533427   -1.2624733395    1.8529316391
 O   -0.5724820620   -1.8934120535    3.0739241252
 C   -1.4045034594   -1.9557199459    0.6494690923
 N   -2.7040878216   -1.7128828735    1.3862116186
 C   -1.9361822165   -0.4106586740    1.4882989492
 C   -1.3920201613   -0.5291370896    0.0373657862
 H    0.8831655236    1.7565046050   -0.0353379131
 H    0.5941906453   -0.3908416821   -0.8633725745
 H    1.4106522731   -1.2711234449    1.2154889358
 H    0.9056131020    0.2341272542    2.0115135755
 H   -1.4485755427   -2.2769477974    3.2317936945
 H   -1.1765312830   -2.9103697682    0.1707633391
 H   -3.4728111554   -1.6143223219    0.7179395347
 H   -2.3381919045    0.4657729497    1.9974957689
 H   -2.0579598496   -0.3008490408   -0.7952207961