21

 C   -0.1137711751    1.5895226294   -0.0225526017
 C    0.0388105243    0.0642374925    0.0018625193
 C    0.7564397829   -0.4823839347    1.2513645079
 C    0.0290906114   -0.0938905868    2.5466406253
 C    0.9284091722   -2.0296953065    1.1627948867
 C    1.6775942582   -2.5242890327   -0.0928382662
 C    1.6212976735   -2.5353385109    2.3548384167
 N    2.1849582988   -2.9340657150    3.2822656946
 H    0.8563803579    2.0856623316    0.0938645099
 H   -0.5398248706    1.9163969232   -0.9759114983
 H   -0.7715295157    1.9520419479    0.7719082462
 H   -0.9528606408   -0.4042014789   -0.0739307147
 H    0.5894355357   -0.2365089783   -0.8950743615
 H    1.7670149425   -0.0507797353    1.2797942339
 H    0.5280693539   -0.5117859162    3.4246787635
 H   -0.0044345960    0.9908486280    2.6710663291
 H   -1.0046083309   -0.4610962796    2.5392231058
 H   -0.0744932006   -2.4794306888    1.1690594914
 H    2.6460245083   -2.0241846175   -0.1883574067
 H    1.8575606774   -3.6003304406   -0.0318528396
 H    1.0947028127   -2.3302327408   -0.9947399617