16

 C    0.0221063599    1.4954604032    0.0651094367
 C   -0.0261620760   -0.0079898807   -0.0078703144
 C    0.7306112004   -0.7065245957   -1.1917435058
 O    0.9722712246   -2.0162033702   -0.6743867680
 C    0.4224565061   -1.9555396305    0.6663261166
 O    0.6965830362   -0.6394579398    1.0762848853
 C   -1.0959102262   -1.9538878851    0.5072176012
 C   -1.3728419127   -0.7267660633    0.0658641758
 H    1.0577249095    1.8469455063    0.0641104270
 H   -0.4927456004    1.9352638640   -0.7947892656
 H   -0.4653337776    1.8515411431    0.9766593766
 H    0.1399173109   -0.7536886170   -2.1125678285
 H    1.6854199512   -0.2050478759   -1.3870077166
 H    0.9093012940   -2.7011812721    1.2909285943
 H   -1.7421926147   -2.8156649518    0.5960715435
 H   -2.3074586553   -0.3262949344   -0.3030787082