12

 C    0.1341181707    1.3947663349    0.0588937975
 N    0.1254608721   -0.0548403175   -0.0079816771
 C    0.3781978212   -0.6405681842   -1.0971229836
 N    0.6180450932   -0.0136335569   -2.3515040621
 N    1.4273131101   -0.5836368290   -3.1212202367
 N    1.9532572330   -1.7705598407   -2.6678983502
 N    1.1493802193   -2.6183102971   -1.9163427148
 N    0.3414854509   -2.0645593765   -1.1421369172
 H    0.9291327223    1.7036927291    0.7472796266
 H    0.2723731950    1.9008061616   -0.9015080661
 H   -0.8103433645    1.7173630436    0.5100216831
 H    2.4368597668   -2.2718652673   -3.4032649794