22

 C    0.2299700972    1.5687017041   -0.3638626581
 C   -0.0356404929    0.1356680364    0.0298974638
 N    1.1008031108   -0.7994415744    0.0126147466
 C    0.4293506928   -0.5042641747    1.2942423244
 C    1.2591845926    0.1971904645    2.3313418163
 O    0.4413480641    0.7580399823    3.3884041259
 C    1.2175317023    0.1000621076    4.4095581360
 C    2.0747192450   -0.6429929297    3.3608792297
 C    1.9545038144   -2.1609533283    3.3282572406
 H    1.2180079726    1.8978345217   -0.0362805123
 H    0.1901227867    1.6761262682   -1.4531761249
 H   -0.5214235975    2.2359312084    0.0711663932
 H   -0.9848544025   -0.2520200193   -0.3398837711
 H    0.8170226403   -1.7115105197   -0.3333201605
 H   -0.2342534573   -1.2643177684    1.7024550137
 H    1.8703969066    0.9710850254    1.8523886655
 H    1.7573263845    0.8174033052    5.0412733864
 H    0.5931815784   -0.5351840599    5.0519223640
 H    3.1295932970   -0.3584988927    3.3812833063
 H    0.9101046261   -2.4875426303    3.3652892757
 H    2.4072919279   -2.5748026033    2.4216678358
 H    2.4665645709   -2.6030477330    4.1897559132