18

 N   -0.1026776339    1.3153847271   -0.1641833289
 C   -0.0037429561    0.0723912124    0.0430247139
 O    1.2053096512   -0.5458342086    0.2140076223
 C    1.2801922367   -1.8198056922    0.8818508742
 C   -0.0040462738   -2.6427333718    0.7769500041
 C   -0.3987055938   -2.8830940696   -0.6897993552
 O   -1.1447892572   -1.7247508725   -1.0832065573
 C   -1.2203847775   -0.8355199480    0.0366421879
 C   -1.1734579409   -1.7632054879    1.2531739244
 H    0.8212338459    1.7535044202   -0.1324370897
 H    2.1254268818   -2.3414307511    0.4227859037
 H    1.5249765829   -1.6368420044    1.9369331505
 H    0.1191503820   -3.5722693711    1.3383918185
 H    0.4718959902   -3.0005848870   -1.3459947873
 H   -1.0339397781   -3.7714425049   -0.7971677694
 H   -2.1146490742   -0.2228623382   -0.0672591036
 H   -2.1052425102   -2.3270272482    1.3479811546
 H   -0.9730467550   -1.2423731043    2.1933641372