17

 N    0.1287268331    1.2882975614    0.4519942599
 C    0.9072178328    2.3672846266    0.0736551094
 C    1.2865330319    2.8599385193   -1.1274690405
 C    1.0706293860    2.4774204349   -2.4896865337
 C    1.2123510427    1.3116029259   -3.1815392890
 N    1.7346518348    0.1079625866   -2.8610024740
 C    1.5121432504   -0.7195197595   -1.8994978206
 C    0.5040014253   -0.8125537577   -0.8800073085
 C   -0.1039669827    0.0178393933    0.0063733847
 H   -0.3270253351    1.4570716439    1.3349574475
 H    1.1351462309    2.9847795728    0.9377917903
 H    1.7601500040    3.8358366599   -1.0240522280
 H    0.9127659398    3.3365558175   -3.1408544784
 H    1.0710879078    1.4068148991   -4.2595137949
 H    2.1216010680   -1.6282973668   -1.9592962159
 H    0.1753681432   -1.8426092429   -0.7472895486
 H   -0.8745240029   -0.4464518745    0.6163270504