18

 C    0.1195518309    1.5100361727    0.0987878611
 C    0.0374455672   -0.0060211074   -0.0101459184
 C   -1.3911557854   -0.5010427678    0.1759830842
 C    0.7623101693   -0.7254507040   -1.1628319945
 C    1.2341194433   -1.7548256048   -0.2151422158
 C    2.2636714453   -0.7737844704   -0.7685397558
 C    2.2982490859   -0.2029008482    0.6053632696
 O    3.0805348845    0.3635935852    1.3007041390
 N    0.9683417635   -0.7872075278    0.9487626111
 H    1.1240900067    1.8912153918   -0.0996815448
 H   -0.5668403852    1.9725115236   -0.6177548673
 H   -0.1717661535    1.8324967478    1.1035144997
 H   -2.0373461925   -0.1106493066   -0.6181793228
 H   -1.4396507230   -1.5928842035    0.1536019658
 H   -1.7854896847   -0.1614065983    1.1378733280
 H    0.4731109830   -0.8408534534   -2.2021830146
 H    1.2574025637   -2.8312868973   -0.1500859349
 H    3.0505308710   -0.9333907714   -1.4934626295