21

 C    0.1852511212    1.6490321234   -0.0744847716
 C    0.0870894182    0.1259635572   -0.0740975100
 C    1.1899569083   -0.6335440648   -0.9146071258
 C    1.6477490719   -1.3211210886    0.3729306297
 N    2.0707304159   -0.2350142918    1.2949067977
 C    0.6377712443   -0.5945173233    1.1793926708
 N   -1.2109038987   -0.4801727516   -0.3828612951
 C   -2.4438638293    0.0856989664    0.1461837671
 C   -2.1351010081    0.1537324771   -1.3117027543
 H    1.1776987479    1.9311488380    0.2831084054
 H    0.0595346232    2.0631716327   -1.0800890635
 H   -0.5538273951    2.1159321488    0.5852814851
 H    0.7262754094   -1.3125583275   -1.6308787939
 H    1.9441912503   -0.0125505710   -1.4046768157
 H    2.0375666481   -2.3247046171    0.4886116828
 H    2.4177789990   -0.6794282686    2.1445591283
 H    0.0613403151   -0.9107970008    2.0405629063
 H   -3.1619598907   -0.6356705534    0.5276294122
 H   -2.4077121932    1.0211644016    0.6999858920
 H   -1.8939497968    1.1343591723   -1.7147245529
 H   -2.6263880408   -0.5149349491   -2.0137606244