19

 O    0.1800939560    1.4397264891    0.0787436275
 C    0.0699058696    0.0263069898   -0.0244185857
 C    0.8366599252   -0.6583835333    1.1236681273
 C    0.1467684813   -0.4069503046    2.4443511037
 C   -1.1696849327   -0.2134650420    2.5430179758
 C   -2.0623666231   -0.3364259369    1.3529555188
 O   -2.7236195671    0.8983680580    0.9412956863
 C   -2.4318351635    0.6013199444   -0.4483799644
 C   -1.3930499799   -0.4583892933   -0.0349688419
 H   -0.3158415357    1.7152651903    0.8600597396
 H    0.5430429932   -0.2192922208   -0.9807428663
 H    0.9276472931   -1.7369400439    0.9314054802
 H    1.8556613843   -0.2599928710    1.1504241702
 H    0.7682698555   -0.3626242908    3.3352442393
 H   -1.6377700604    0.0013205722    3.5000945376
 H   -2.8210914319   -1.1151407698    1.5273576248
 H   -3.3092647311    0.1859439651   -0.9617470765
 H   -2.0599462806    1.4784641424   -0.9820795498
 H   -1.4639257424   -1.4385829249   -0.5121611567