18

 C    0.1030030845    1.5257832833   -0.2563123811
 N    1.4486982659    1.5996698521    0.4195149174
 C    1.4569582857    0.1113678538    0.5724600647
 C    0.8088450433   -0.3571694319    1.9012784682
 O   -0.5036708361   -0.4201417578    1.2588247682
 C    0.0576257752   -0.0042619572   -0.0034541645
 C    0.0701524975   -1.0290485196   -1.1408075038
 C    1.5501182517   -1.3999626150   -1.1917786212
 C    2.3043971340   -0.7853117618   -0.2688551541
 H   -0.6662526969    2.1058176028    0.2613232844
 H    0.1093622771    1.7995582363   -1.3178971722
 H    2.1786722259    1.9273575273   -0.2037479495
 H    1.1162839135   -1.3415325778    2.2719949997
 H    0.8362163024    0.3822587032    2.7073911070
 H   -0.5587220975   -1.8931663692   -0.8956432096
 H   -0.2877545537   -0.6322950797   -2.0990097726
 H    1.9323050321   -2.1134108462   -1.9161860638
 H    3.3718491754   -0.9329132424   -0.1425362870