25

 C   -0.1274504116    1.4815671824   -0.9719799269
 C   -0.0634194252    0.0971981854   -0.3107235615
 C    0.6088341612    0.1829945482    1.0609365868
 O    1.9498093577    0.6193064440    0.8799256082
 C   -1.4518565431   -0.5300218530   -0.1924554894
 C   -2.3055826237   -0.7525522673   -1.4717149597
 C   -2.8550769191   -2.0545952205   -0.8324320972
 C   -1.6496833523   -2.0495849117    0.1543242472
 C   -0.5248307846   -2.9923270645   -0.2698812570
 H    0.8680494253    1.9286075035   -1.0188266458
 H   -0.5272134114    1.4186238554   -1.9885242235
 H   -0.7756913488    2.1573354606   -0.4000899327
 H    0.5699633211   -0.5476785750   -0.9345456406
 H    0.0453977616    0.8859457011    1.6980810612
 H    0.5807978739   -0.7998976350    1.5566232665
 H    2.3497801428    0.7317308596    1.7467570797
 H   -2.0419362111    0.0622964552    0.5203947432
 H   -3.0234928667    0.0243835882   -1.7449662171
 H   -1.6784212082   -0.9606449640   -2.3445847716
 H   -3.8074917068   -1.8882090838   -0.3214019432
 H   -2.9575703778   -2.9304013224   -1.4793586795
 H   -1.9062006484   -2.2469275367    1.2001774478
 H   -0.2532545002   -2.8583963579   -1.3226183651
 H    0.3820653977   -2.8473787451    0.3262949356
 H   -0.8401669125   -4.0341912166   -0.1449546653