21

 C    0.3500189037    1.5377900371    0.2938139175
 C    0.1205634655    0.0255048476    0.3441244436
 C   -1.2585346548   -0.3759747403   -0.1816288212
 N   -1.4092273122   -1.8283320311   -0.1498410986
 C   -2.0317557517   -2.4418088390    1.0159555776
 C   -2.7150866362   -2.4510384617   -0.3093247091
 C   -4.0029524940   -1.6554789817   -0.5014902743
 C   -4.1784466418   -1.1923804077   -1.8795014680
 N   -4.3072347087   -0.8314407117   -2.9695923221
 H    1.3423400434    1.7989770375    0.6728960607
 H    0.2753042171    1.9170036141   -0.7312675762
 H   -0.3883110273    2.0755856457    0.8992306799
 H    0.8815643337   -0.4969995006   -0.2456251346
 H    0.2270890817   -0.3350873822    1.3751011240
 H   -2.0325708123    0.1503324641    0.4047636451
 H   -1.3691367906   -0.0513734120   -1.2232035887
 H   -1.5592372532   -3.3392213046    1.4062145584
 H   -2.4483366364   -1.7814076412    1.7781205986
 H   -2.6895313629   -3.3610076204   -0.9061933253
 H   -4.8571773873   -2.2911524006   -0.2402564031
 H   -4.0427051556   -0.7898647514    0.1656812959