20

 C    0.0084223156    1.5021414083    0.0816691410
 C   -0.0070764070    0.0077156524    0.0053307879
 C    0.0096742663   -0.7529356600   -1.0955306061
 C   -0.0409905361   -2.2318929637   -0.7830676962
 C    0.0021903960   -2.2906122830    0.7501426328
 C   -0.7667992809   -3.3868443004    1.4478817797
 C    1.2334898241   -1.7156296342    1.4041835724
 C   -0.0025784156   -0.8478133152    1.2336852299
 H    0.8893295470    1.8636814343    0.6272475606
 H    0.0108174494    1.9568657097   -0.9127245092
 H   -0.8681568049    1.8791209452    0.6242662500
 H    0.0692815579   -0.3722052333   -2.1097820301
 H   -0.9639316924   -2.6912920957   -1.1669106235
 H    0.7879505980   -2.7875663509   -1.2417228231
 H   -0.3571132850   -4.3755596706    1.2075023002
 H   -0.7280695095   -3.2712069537    2.5359052986
 H   -1.8215265648   -3.3850811829    1.1486094305
 H    1.4633564188   -2.0688412085    2.4051544476
 H    2.1014585832   -1.4799571799    0.7957083029
 H   -0.5487002700   -0.5345345179    2.1186711040