15

 C   -0.0325298985    1.4772202203    0.0090410080
 N    0.0264116752    0.0333923205   -0.0240436945
 C    0.0426792978   -0.7867354539   -1.1667392566
 C    0.1049208079   -2.0674003453   -0.6877481789
 N    0.2125200899   -3.2763648999   -1.3803098249
 N    0.1243741656   -2.0752589840    0.6944720568
 C    0.0782383700   -0.8083547456    1.0278919161
 O    0.0734203632   -0.3243117200    2.2850228306
 H    0.8316685828    1.9149385904   -0.5021738610
 H   -0.9459310527    1.8421991318   -0.4731064596
 H   -0.0289089801    1.8042057911    1.0489982481
 H    0.0207441162   -0.3699184807   -2.1584681176
 H   -0.2725942648   -3.2749572774   -2.2673673373
 H   -0.1070571675   -4.0468938033   -0.8075354318
 H    0.1244141649   -1.0940207941    2.8646866726