17

 O    0.0061944533   -0.0728185662    0.2248210258
 C   -0.0132340004    1.1114531298   -0.0036956297
 N   -1.1571459478    1.9174540630   -0.1430639430
 C   -0.8055736852    3.2953719035   -0.1041833188
 C   -0.0358324715    3.8536553771    1.0741352379
 C    0.7158135867    3.3162382972   -0.1253773510
 C    0.7101711783    4.2953504008   -1.3174142897
 C   -0.8599879807    4.2738157211   -1.2955378987
 N    1.1038254837    1.9484657933   -0.1745666800
 H   -2.0113702485    1.5458996863    0.2421242111
 H   -0.0480039727    4.9245434534    1.2545496495
 H   -0.0149726966    3.2367120326    1.9647606439
 H    1.2017348648    5.2570645603   -1.1460615661
 H    1.1202114836    3.8405441603   -2.2200022597
 H   -1.2823800321    3.8075825861   -2.1865252086
 H   -1.3727784063    5.2217544981   -1.1102019937
 H    1.9782999315    1.6006294132    0.1865811309