14

 C   -0.0015965981    1.3455156215   -0.0201852627
 O   -0.0258397537   -0.0839262779   -0.0782194157
 C    0.6105987624   -0.6263685774   -1.1086790740
 N    0.6610414550   -1.9454413093   -1.2757224208
 N    1.3767137995   -2.0194704608   -2.3979601465
 C    1.7248804302   -3.2764974300   -3.0263347396
 N    1.7424356230   -0.8521850283   -2.8921557091
 N    1.2596716718    0.0609340235   -2.0761867985
 H    1.0252708055    1.7155631251    0.0519814793
 H   -0.4724400602    1.7798906459   -0.9068795256
 H   -0.5635027800    1.6108638735    0.8752873264
 H    0.8162690712   -3.8169865040   -3.3003611043
 H    2.3087248306   -3.0423365694   -3.9155292155
 H    2.3127038128   -3.8845394525   -2.3353559234