19

 C    0.0256368557    1.4810554721   -0.1269961913
 C   -0.0247584946   -0.0371493921   -0.0047210093
 O    0.7119909139   -0.5132063664    1.1193073164
 C   -1.4589171271   -0.5763042697    0.0735198923
 O   -2.1961564963   -0.1177889797   -1.0609776709
 C   -3.1243478493   -1.1105764709   -1.4879004564
 C   -2.5924216500   -2.4207099343   -0.9527091869
 O   -1.2085207553   -2.6202583976   -1.2578808719
 C   -1.5575852742   -2.0886169210    0.0268260786
 H    1.0629509617    1.8210101329   -0.1908585174
 H   -0.5167121495    1.8127262061   -1.0151335112
 H   -0.4398051876    1.9563743836    0.7470566578
 H    0.4467067439   -0.4979924958   -0.8786509465
 H    0.4611005209    0.0206683873    1.8813142114
 H   -1.9266959802   -0.2222932217    1.0115868740
 H   -4.1313630409   -0.9251510352   -1.0803807103
 H   -3.1772359525   -1.0728271036   -2.5810065632
 H   -3.2161637168   -3.3090548264   -0.9072928038
 H   -1.3048950618   -2.6944311475    0.8901604385