15

 O   -0.0160201090    0.0204867466    0.2516425810
 C    0.0208610018    1.1944203461    0.0315597947
 O   -1.1133246314    1.9413533235   -0.1523654218
 C   -0.8181902750    3.2406570581   -0.6792204984
 C    0.6917689285    3.4453205904   -0.5266599215
 C    1.2071686276    3.2617098832    0.8787622917
 C    1.2166017456    2.0877320566   -0.0738588966
 C    1.3702121780    4.2848766352   -1.4640408725
 C    1.9149550333    5.0016053935   -2.2612139723
 H   -1.1076265135    3.2711527538   -1.7342481840
 H   -1.4057340280    3.9773485859   -0.1241657212
 H    2.1704911507    3.7017224079    1.1048972298
 H    0.4914068744    3.2642820997    1.6947091424
 H    2.1508491599    1.6631623844   -0.4124431914
 H    2.4038098572    5.6314731552   -2.9628248100