12

 O    0.0807350343    1.3036075600    0.2002699509
 C    0.0683379060   -0.0266578040    0.0039038797
 C    0.0857125326   -0.7837157536   -1.1626601689
 C    0.0578300719   -2.1227212999   -0.6976766041
 C    0.0259745234   -2.1182443265    0.6823947536
 N    0.0321469873   -0.8115494484    1.1293268791
 N   -0.0005941921   -3.3825019800    1.1362281223
 N    0.0115887699   -4.1898834684    0.1646548529
 O    0.0512422060   -3.3765721504   -1.1115754313
 H    0.1065096548    1.7478467978   -0.6535441967
 H    0.1139022335   -0.4044010612   -2.1703933135
 H    0.0145496524   -0.4649371054    2.0724046060