21

 C    0.1230604049    1.5130014838    0.2999900141
 C   -0.0431088412   -0.0082346135    0.2866804851
 C   -1.3487318530   -0.4640824012   -0.3792778706
 C   -1.4944346372   -1.9695959468   -0.3723516408
 N   -1.9776511093   -2.5961927262    0.8705715150
 C   -2.7843933490   -2.7126674531   -0.3477583985
 C   -4.1457077493   -2.0312661690   -0.3310069799
 C   -5.1841507328   -2.9083828490    0.2112235054
 N   -5.9941514574   -3.6183988828    0.6293622315
 H    1.0598552628    1.8064399711    0.7833925500
 H    0.1310427399    1.9216219045   -0.7167651645
 H   -0.6968623960    1.9955440891    0.8433723126
 H    0.8080607095   -0.4668529678   -0.2341741102
 H   -0.0223503931   -0.3958212558    1.3121691172
 H   -2.1950204717   -0.0054545974    0.1434407790
 H   -1.3814369674   -0.1039271657   -1.4167347911
 H   -0.6894128946   -2.4866179006   -0.8964282008
 H   -1.4896664331   -3.4639514518    1.0708386570
 H   -2.7933264646   -3.6745437386   -0.8570958685
 H   -4.1043395466   -1.1240710886    0.2770986765
 H   -4.4362697708   -1.7367294308   -1.3465037384