25

 C   -0.0389423648    1.3066421626   -0.1818530800
 O   -0.0161090390   -0.0732884251    0.0955548785
 C    0.7220901832   -0.5315694868    1.2445816274
 C    2.1433959504    0.0536996270    1.2701982898
 C   -0.0409602928   -0.1310599536    2.5190769591
 C    0.7160972344   -2.0764363241    1.0468028345
 C    1.4070701347   -2.5163912494   -0.2522929757
 C    1.2743236546   -2.8581335230    2.2406689615
 O    1.0404673166   -4.2401288144    1.9936846755
 H    0.9452359776    1.6983864102   -0.4743413571
 H   -0.7231396819    1.4381592760   -1.0246363465
 H   -0.4137691666    1.9107274794    0.6569692549
 H    2.1287177450    1.1271978374    1.4800608756
 H    2.7390092567   -0.4196213153    2.0559738086
 H    2.6527923804   -0.1017447144    0.3160898835
 H   -1.0214483533   -0.6153130199    2.5486303311
 H    0.5096776196   -0.4034506342    3.4235847559
 H   -0.1945175425    0.9512489954    2.5559451755
 H   -0.3445456327   -2.3474935798    0.9674650204
 H    1.2345359359   -3.5811235276   -0.4194784522
 H    1.0174558177   -1.9529481701   -1.1013409033
 H    2.4915952599   -2.3645647006   -0.2037826727
 H    2.3533103387   -2.6615007124    2.3524337269
 H    0.7824558633   -2.5503709639    3.1736876720
 H    1.4159458850   -4.7407820536    2.7233165666