15

 O   -0.0960757296    1.4386863688   -0.0590196062
 C   -0.0116889695    0.0384352308    0.0420693218
 C    0.2704863864   -0.6026400595    1.4386956454
 C   -1.0999339282   -1.3504437176    1.3633584022
 C   -1.4064812653   -0.6366868945    0.0026691213
 N   -2.4652423649    0.0956843570    0.6930780777
 C   -2.2157532520   -0.4564684890    1.9410424304
 O   -2.6714448441   -0.2361445402    3.0292954538
 H    0.7828945336    1.8100442156    0.0665099881
 H    0.6482027474   -0.3839648800   -0.7290041960
 H    1.1383811294   -1.2648694246    1.4496252781
 H    0.3513281841    0.1047144661    2.2671062753
 H   -1.1309172485   -2.4248142753    1.5255819361
 H   -1.7165984576   -1.1389898813   -0.9138912010
 H   -2.8046818212    1.0266448639    0.4907683530