19

 C    0.6234840978    1.4041130890    0.0517504180
 O    0.1727006943    0.0734327862   -0.0600813996
 C    0.5668076580   -0.5497667410   -1.2610157232
 C    0.0303086798   -1.9737161553   -1.2380017430
 C    0.7171150338   -2.9197662610   -2.2561351510
 C    1.5411095740   -3.4494474594   -1.0422068756
 N    0.5581401055   -2.8158865688   -0.1380274526
 C    1.6801775720   -4.8996800190   -0.8939653764
 N    1.8010286951   -6.0448876931   -0.7961478937
 H    1.7226547126    1.4661658786    0.0196289800
 H    0.2201942598    2.0386994734   -0.7523169943
 H    0.2747973587    1.7870062822    1.0134979999
 H    0.1687445483   -0.0103117901   -2.1381545475
 H    1.6686029971   -0.5492241078   -1.3505594117
 H   -1.0638157889   -1.9447331496   -1.2586684291
 H    0.0463335792   -3.6734369481   -2.6668910657
 H    1.2917674081   -2.4592893721   -3.0606402839
 H    2.5480991335   -3.0116128373   -1.0130623996
 H    0.9363794112   -2.3050273068    0.6528376591