16

 O    0.0469399277    1.3818904202   -0.0245662572
 C    0.0009729993    0.0018074968   -0.0832335451
 C   -1.3668750481   -0.7278163947   -0.0071339675
 C   -0.7915813741   -2.1426399887   -0.0375548851
 C    0.5422570212   -2.1428291383    0.6716351990
 N    0.4513172675   -2.1559020493   -0.8229627538
 C    0.6577274147   -0.7398975109   -1.2625970063
 C    0.7351302981   -0.7181584142    1.0658607617
 O    1.2829887816   -0.1793995363    1.9919817404
 H    0.5184070039    1.6017868462    0.7942141647
 H   -1.9088569299   -0.5015923657    0.9152128153
 H   -2.0115017734   -0.5104543416   -0.8637560689
 H   -1.4063122546   -3.0344596234   -0.0720899218
 H    0.9796627138   -2.9948550445    1.1734973232
 H    0.1608328499   -0.5767235523   -2.2225075180
 H    1.7257550425   -0.5291199933   -1.3651030005