16

 O   -0.0389719870    0.0049794411   -0.0870242172
 C   -0.0374899996    1.1999280288    0.0086816059
 C   -1.1288669704    2.2790472553   -0.0105990644
 C   -1.3498828901    2.7330343925    1.4605132020
 N   -0.2047398135    3.5759132170    1.8109337910
 C    0.2905462200    4.2636835892    0.6366568672
 C    1.1037995238    3.1854132492    1.2881349643
 C    1.0371646340    2.2772533923    0.0063784447
 C   -0.0377079974    3.2899968868   -0.5317124542
 H   -2.0468199366    2.0946593253   -0.5685173411
 H   -2.2587510301    3.3371170052    1.5496094425
 H   -1.4293917458    1.8897525851    2.1522605402
 H    0.3856760345    5.3422859805    0.6165306445
 H    1.9521976891    3.2281771102    1.9605767118
 H    2.0068068548    2.1105399108   -0.4626889849
 H   -0.0601463955    3.6074491207   -1.5695677125