21

 C    0.5370474057    1.4094221548    0.0432202295
 C    0.0837553513   -0.0590041778    0.0074709425
 C   -1.4436344073   -0.1248122890   -0.0807646656
 C    0.7788627975   -0.8077322027   -1.1862784924
 O    1.0333662770   -0.0257152266   -2.3438578925
 C    2.0050800444   -1.4245488722   -0.5579400897
 C    1.9286717927   -1.4333133190    0.7712994497
 C    0.6380685210   -0.8238851242    1.2630541311
 O    0.7576755844   -0.0573387937    2.4523460147
 H    1.6287291613    1.5037828013    0.1065934115
 H    0.2080616871    1.9302493402   -0.8595348765
 H    0.1064007736    1.9185726673    0.9091125723
 H   -1.8048148670    0.3742805655   -0.9861876356
 H   -1.7938612221   -1.1626692223   -0.1077333351
 H   -1.9065672169    0.3626242705    0.7837782904
 H    0.1096695369   -1.5984067199   -1.5511353221
 H    1.7249587295    0.6078624706   -2.1258027370
 H    2.8016741656   -1.8463654274   -1.1617493781
 H    2.6511514084   -1.8636323410    1.4568106782
 H   -0.0679271943   -1.6187794053    1.5384086190
 H    1.4692161111    0.5785299511    2.3233096359