21

 C    0.3768953767    1.6213528781    0.4718896759
 C    0.2369731796    0.1453354973    0.1898390230
 C    0.9386854837   -0.4659262149   -0.9603340811
 N    1.4559883229   -0.6444241190    0.4597394095
 C    1.0975713181   -2.1180124771    0.3675661591
 C    0.2135313952   -2.6891993704    1.4608422537
 C    0.5847411835   -1.9297606473   -1.0694852364
 C   -0.4979361805   -2.5683777751   -1.8500206638
 N    0.9256537970   -2.8400463413   -2.1526493513
 H    1.3655548480    1.9782952438    0.1705801856
 H   -0.3818976092    2.1959366834   -0.0699306178
 H    0.2590345069    1.8228635081    1.5414775250
 H   -0.7233062954   -0.2839440564    0.4712779797
 H    1.4866402079    0.1128008592   -1.6999078031
 H    2.0440822920   -2.6661131949    0.3343169517
 H   -0.7667628515   -2.2061682517    1.5055820084
 H    0.0505195500   -3.7587209101    1.2910862088
 H    0.6963774451   -2.5730711063    2.4365687956
 H   -1.0430665154   -3.4163050159   -1.4435720095
 H   -1.0722908061   -1.9451514299   -2.5316837400
 H    1.2144693515   -2.3188157694   -2.9778685031