17

 O    0.0380365117    0.0258691768    0.3883205266
 C   -0.0026964072    1.1637869204    0.0146955267
 O   -1.1898700585    1.7255018367   -0.2986043963
 C   -1.3139818556    2.9339306916   -1.0753647952
 C   -0.1623159432    3.9112117475   -0.9025011641
 C    1.1584243280    3.1723283318   -1.1024306700
 C    1.2641067412    2.0483219204   -0.0490202973
 C    1.5128994050    2.5871858323    1.2871018764
 C    1.7103622969    3.0538149449    2.3768335405
 H   -1.4032817190    2.6335529899   -2.1276936501
 H   -2.2677838875    3.3699942539   -0.7689689349
 H   -0.2820777925    4.7216386679   -1.6287178819
 H   -0.1879624955    4.3564725237    0.0977426766
 H    1.1926055772    2.7260207948   -2.1039944822
 H    2.0170555388    3.8423104165   -1.0114726469
 H    2.0753568332    1.3589889875   -0.3035063929
 H    1.8910577871    3.4462492435    3.3470738451