13

 N   -0.2329435938    1.4187427343    0.1583504432
 C   -0.0519949537    0.1748562571    0.0000663182
 N    1.1951770568   -0.4448192455   -0.1695371531
 C    1.4227843396   -1.3606430469   -1.0233746910
 N    0.5673405215   -1.9106450487   -1.9657021466
 C   -0.8061586370   -1.7577872883   -2.0546035492
 N   -1.6148130596   -1.3042019769   -1.1858813088
 C   -1.2267286339   -0.7962440729    0.0622728740
 O   -1.7824120578   -1.0918007509    1.0865679074
 H    0.6646603506    1.9085318696    0.1051605349
 H    2.4268326513   -1.7798506324   -1.0840453162
 H    0.9987507557   -2.4841446384   -2.6764656844
 H   -1.2002888997   -2.1179478102   -3.0053239483