18

 C   -0.0573485553    1.5194005356   -0.0220992534
 C    0.0696506819    0.0201108638    0.0125204651
 C    1.0456331858   -0.7872084536   -0.8959900009
 C    0.6832801946   -1.9158060894    0.1189868101
 O    1.3499423865   -3.1108311452    0.2334025985
 C    0.6591290864   -0.7846516370    1.2164290309
 C   -0.8282580176   -2.0357882534   -0.1082658354
 O   -1.4792934631   -3.0552376638   -0.0904551737
 N   -1.1987681057   -0.7185762487   -0.2780432221
 H    0.9132442615    1.9868039511    0.1647618713
 H   -0.4206330858    1.8584960217   -0.9973841855
 H   -0.7534438132    1.8766252580    0.7453425920
 H    0.7645063733   -0.9178425858   -1.9431689728
 H    2.0826396621   -0.4593220471   -0.7962649116
 H    0.6668315597   -3.7996391572    0.2048578840
 H    1.6633325860   -0.4663745450    1.5065492385
 H    0.0221972652   -0.9252795523    2.0941532070
 H   -2.0963597422   -0.3851899617    0.0444750779