20

 C    1.0675450150    0.9095916541   -0.1938759790
 N    0.1166542068    0.1130943961   -0.9885132737
 C   -0.2201315788    0.4647189142    0.3970787377
 C   -0.3807150050   -0.6798711166    1.3714380161
 C    0.6826887770   -1.7754263391    1.2939166022
 O    0.4296942367   -2.7705712212    2.2756383672
 C    0.4178462594   -2.2081371542    3.5771132207
 C   -0.6262502909   -1.1004604427    3.6705910699
 O   -0.3940579067   -0.1111965559    2.6802207765
 H    1.9975573196    0.4040643990    0.0448465091
 H    1.1772814571    1.9684054301   -0.4134105422
 H   -0.3896759168    0.7052644192   -1.6401748747
 H   -0.9626849071    1.2445236556    0.5584941090
 H   -1.3576418834   -1.1602840700    1.1826811176
 H    0.6619967886   -2.2660929855    0.3190993514
 H    1.6800432506   -1.3372217615    1.4566288193
 H    0.1905530357   -3.0208975389    4.2739305883
 H    1.4112651514   -1.7980904531    3.8246750895
 H   -1.6320645179   -1.5344482876    3.5456496408
 H   -0.5799470513   -0.5961514018    4.6409010844