18

 C   -0.0896638366    1.5759851350   -0.0166186395
 C    0.0031715172    0.0449306886    0.0223089590
 C    0.9084460985   -0.5626304401   -1.1302664481
 N    1.9967227305   -1.3641100720   -0.5333493832
 C    1.8246150208   -1.2834466436    0.7230276792
 O    2.5429108667   -1.8244444394    1.7284630542
 C    1.9155621694   -1.4143459731    2.9640053352
 C    0.7292671058   -0.5587250384    2.5619874335
 C    0.7040949897   -0.5018972437    1.2311375870
 H    0.9052283754    2.0275818191    0.0522617823
 H   -0.5487484505    1.9102399044   -0.9524203336
 H   -0.6933886989    1.9598479427    0.8117604353
 H   -1.0090553931   -0.3697091600   -0.0476054140
 H    0.3222232901   -1.1937119491   -1.8078591602
 H    1.3426107006    0.2369270740   -1.7434847748
 H    1.6270760053   -2.3141831130    3.5228844896
 H    2.6553046330   -0.8687668199    3.5642754910
 H    0.0658977861   -0.1091106115    3.2891063071