20

 C   -0.0634094874    1.4227234883   -0.0808815526
 O    0.0439763620    0.0191968293   -0.0061858183
 C    0.6854178200   -0.5507723858   -1.1249909813
 C    0.6694512975   -2.0659417026   -0.9385312600
 C   -0.7718909801   -2.5564213931   -0.8311389108
 O   -1.0893039272   -3.6383024980   -0.4064213034
 C    1.4376763795   -2.7679200770   -2.0569628978
 C    1.3119581501   -4.2189113518   -2.3219720634
 N    0.7939281194   -3.2397682938   -3.2980706185
 H    0.9259374733    1.9029292536   -0.1311451140
 H   -0.6451224278    1.7405303557   -0.9600173938
 H   -0.5749323979    1.7591673136    0.8236629369
 H    0.1605750259   -0.2754966965   -2.0572430145
 H    1.7200814697   -0.1831393322   -1.2173530191
 H    1.1566405927   -2.3035041126    0.0156577805
 H   -1.5414542473   -1.8407560591   -1.1968108473
 H    2.4072633300   -2.3080277417   -2.2432750890
 H    2.1800109104   -4.7794106594   -2.6570076019
 H    0.6003750318   -4.7772798667   -1.7219775678
 H   -0.2195881846   -3.1900211302   -3.2177854540