22

 C    0.0084092040    1.5245498579   -0.0257050365
 C   -0.0083442377    0.0220035263    0.0280778659
 C   -1.1462916533   -0.6808139755    0.0474961878
 C   -1.2139719640   -2.1629096060    0.0560412626
 C   -2.2563504031   -2.8074336750    0.9127197256
 N   -2.3939276327   -2.8202651554   -0.5499723172
 C    0.1096986504   -2.8541765584   -0.2172454556
 C    1.2503237259   -2.1309954393    0.5072756763
 C    1.3396210913   -0.6654275487    0.0590102835
 H    0.5674681012    1.8807131609   -0.9011674416
 H   -1.0009647928    1.9420258904   -0.0761039245
 H    0.5107803297    1.9478075750    0.8539766861
 H   -2.1021852740   -0.1564277503    0.0509946526
 H   -2.0563166571   -3.7769526797    1.3628824557
 H   -2.9094264657   -2.1637828283    1.4972534821
 H   -3.0706704436   -2.1175094192   -0.8408144881
 H    0.0534391229   -3.9063906203    0.0774304754
 H    0.2920506135   -2.8385679389   -1.2996614074
 H    1.0717181696   -2.1663654387    1.5894429317
 H    2.2028422246   -2.6401242316    0.3266344262
 H    1.7975280869   -0.6031011740   -0.9403874780
 H    2.0158156641   -0.1080817712    0.7207167976