19

 C    0.1898606940    1.5582568786   -0.0328949512
 C   -0.0558032523    0.0942671633    0.1258474827
 C   -1.3842678513   -0.6797389642    0.0085440215
 C   -0.7989759636   -1.7507285540    0.9835591449
 C   -1.5229834862   -2.1550913432    2.2818576869
 O   -1.3066076889   -3.5536733171    2.0158197481
 C   -0.7471655147   -3.2634151142    0.7145181624
 C    0.4865354287   -0.9209537594    1.0473424892
 O    0.9694178510   -0.8197686737   -0.3014804571
 H    1.2113297354    1.8081939788    0.2656384969
 H    0.0557749446    1.8629305313   -1.0770672778
 H   -0.5088706656    2.1387065271    0.5780997789
 H   -2.2362413715   -0.1502265677    0.4458469672
 H   -1.6403099982   -1.0161593430   -0.9998129118
 H   -1.0571478912   -1.8341466903    3.2230274069
 H   -2.5916586641   -1.8998263140    2.3102024036
 H   -1.4004175721   -3.6106917481   -0.0970501439
 H    0.2507631446   -3.6968687530    0.5818542813
 H    1.2182741414   -0.8554297972    1.8464825211