19

 C    0.0713139591    1.4893567867   -0.1491907674
 O    1.5045329266    1.4360943280    0.1592444424
 C    1.2655667057    0.2076028209    0.8979810686
 C    1.8011353718   -1.2065088035    0.6660929287
 C    0.5594091579   -1.9650517829    1.2899312963
 C   -0.7283277156   -1.0992105767    0.9068980540
 C   -0.0053976192   -0.0271888853    0.1086757141
 O    0.4328229480   -0.6604860244   -1.1113062932
 C    1.6826303939   -1.3184239849   -0.8481931565
 H   -0.4643041301    2.1151533928    0.5752458752
 H   -0.1166546427    1.8185420324   -1.1726095943
 H    1.1254670936    0.4324896320    1.9621401291
 H    2.7616152547   -1.5008005430    1.0898230213
 H    0.4995128580   -2.9817206558    0.8945584706
 H    0.6629191850   -2.0403657805    2.3754022889
 H   -1.4461115041   -1.6672865078    0.3133656710
 H   -1.2288596066   -0.7140695265    1.7994476795
 H    2.4988430758   -0.8010312651   -1.3688152586
 H    1.6328409882   -2.3539523264   -1.2049195897