17

 O   -0.1449266772    0.2095181283    0.7374323519
 C    0.1209771458    1.0029523170   -0.1373538297
 C    1.2930071400    1.9245744939   -0.0889306604
 C    1.7977022061    2.2773518706    1.3043149930
 C    2.5652943202    1.2982019678    0.4874943764
 C    1.4337970135    2.9477079672   -1.1775325993
 N    0.8920385126    2.6111449849   -2.5022208110
 C    0.2893284737    3.7142190427   -1.7357447673
 H   -0.4944841572    1.0723208736   -1.0552532973
 H    2.1996075052    3.2757209425    1.4396448256
 H    1.2058647612    1.8920297249    2.1264996517
 H    2.4960011397    0.2508518781    0.7572777566
 H    3.5050364001    1.6061915286    0.0416021957
 H    2.3852670683    3.4779184927   -1.1491492794
 H    1.4890320506    2.9681920056   -3.2421858982
 H   -0.7192965712    3.5224381201   -1.3780698052
 H    0.4642230184    4.7373903615   -2.0577096028