20

 C   -0.3000463088    1.3405241394    0.5072933654
 O   -0.2945205621   -0.0723187226    0.5904105066
 C   -1.3551937777   -0.6790294328   -0.1095509554
 C   -1.1829108060   -2.2061799841    0.0017788253
 C   -2.4753031714   -2.6854493470    0.6926684271
 C   -3.0271271579   -1.4020550078    1.3397148484
 C   -2.5249247240   -1.1515467771    2.7623185431
 O   -2.6189511042   -0.3619986172    0.4373489493
 H    0.5689305650    1.6983530741    1.0640974878
 H   -0.2183755094    1.6794860406   -0.5371573156
 H   -1.2124686552    1.7655153399    0.9412875528
 H   -1.3672973797   -0.2983129412   -1.1418243124
 H   -1.0396831494   -2.6655127820   -0.9781616439
 H   -0.2919912688   -2.4085589082    0.5995025477
 H   -3.1886311160   -3.0631681025   -0.0453830356
 H   -2.2967895477   -3.4796853993    1.4216378641
 H   -4.1218908890   -1.3867731231    1.3353635987
 H   -1.4326237714   -1.1708671939    2.8039276142
 H   -2.8605184031   -0.1711325505    3.1124980527
 H   -2.9177047532   -1.9126956344    3.4452348997