22

 C    0.0598059228    1.5358330671   -0.1189490087
 C   -0.0715130873    0.0167202892   -0.2502022311
 C   -1.4243404019   -0.5088562738    0.2504683793
 C   -1.5345862000   -2.0166011557    0.1591283087
 C   -2.8395879063   -2.7610201545    0.1416617152
 C   -4.1880110328   -2.0798060301    0.2165660359
 C   -1.9867671411   -2.7129344295   -1.1287164891
 C   -2.4180986131   -1.9258959101   -2.2475087695
 N   -2.7647615342   -1.2858271793   -3.1480744670
 H    1.0343089267    1.8825254215   -0.4758693335
 H   -0.7105042576    2.0505429232   -0.7033384927
 H   -0.0462742598    1.8553515822    0.9239519388
 H    0.0598945673   -0.2757711091   -1.2989645943
 H    0.7359998121   -0.4733809947    0.3099364220
 H   -1.5678554760   -0.2094484839    1.2976075176
 H   -2.2271796741   -0.0293954323   -0.3192398841
 H   -0.7167839068   -2.5387643326    0.6510223979
 H   -2.8149083513   -3.7338819780    0.6257277258
 H   -4.2230269731   -1.1623081829   -0.3743925772
 H   -4.9729605890   -2.7425423039   -0.1611509786
 H   -4.4327601607   -1.8263546312    1.2533387415
 H   -1.4670652038   -3.6214231818   -1.4136337269