12

 O   -0.0111766672   -0.0514927050    0.0025769416
 C    0.0156062592    1.1335918747    0.0085359334
 O   -1.0742919046    1.9565828411    0.0289267524
 C   -0.7109034796    3.3586781211    0.0312157695
 C    0.7803456600    3.3075365653    0.0091860256
 N    1.8375590979    4.0767990362   -0.0022158874
 C    2.8506125626    3.1373317610   -0.0220701003
 N    2.4766102255    1.8670801026   -0.0232788001
 N    1.1284372926    2.0047333939   -0.0028595626
 H   -1.1450505073    3.8366321644   -0.8514333447
 H   -1.1190438479    3.8269703777    0.9312844002
 H    3.8941852688    3.4145532369   -0.0358483276