19

 C   -0.0537730400    1.5773474990   -0.0212197376
 C    1.4535447911    1.9653081134   -0.0197818407
 C    2.1117176158    0.7901580569   -0.7082161882
 C    3.5380836252    0.2704335311   -0.5933215136
 C    3.3315207096   -1.2385251103   -0.5560450645
 C    2.0390269551   -1.5839180390   -0.5869407351
 C    1.1951875255   -0.3592754569   -0.6948352639
 C   -0.1025411470    0.0210857110   -0.0225393104
 O    1.4416916836    0.3941046109   -1.9154248022
 H   -0.5949059183    2.0094059828    0.8242721421
 H   -0.5192244067    1.9511240794   -0.9351658130
 H    1.6325230487    2.9247041479   -0.5155844465
 H    1.8446942679    2.0451808983    1.0021661199
 H    4.1630778377    0.5766884256   -1.4402527275
 H    4.0319746998    0.6364714273    0.3160551867
 H    4.1639490054   -1.9343976163   -0.5484107384
 H    1.6516022165   -2.5952866381   -0.5736912553
 H   -0.1055435170   -0.3802497859    0.9983387517
 H   -0.9933915730   -0.3628506271   -0.5292381733