16

 C   -0.8050166946    1.1575153510    0.2674276531
 C    0.3757047173    0.3341758116   -0.1765191179
 O    1.4301425095    0.2927257239    0.4014114857
 C    0.1700656467   -0.5846879134   -1.4411751034
 C    1.5229352712   -0.8687349770   -2.1213698762
 C   -0.3918712743   -1.8957209408   -0.8369050580
 O   -1.5513354276   -2.1903471299   -0.8011101664
 C   -0.7902698404   -0.0017624627   -2.3736938982
 N   -1.5208684155    0.4814440804   -3.1270763636
 H   -0.9916057878    1.9583282863   -0.4558269242
 H   -1.7112740493    0.5431591715    0.2922098230
 H   -0.6020328681    1.5858105730    1.2490365966
 H    2.2263812435   -1.2427065895   -1.3760931174
 H    1.4055975301   -1.6033972213   -2.9215054658
 H    1.9333546267    0.0489063798   -2.5471088901
 H    0.4052433625   -2.5320294130   -0.3991459672