21

 C   -0.1872386139    1.5473180271    0.0096069954
 C    0.0371290226    0.0264610367    0.0029587279
 C    0.7633260821   -0.4407552438   -1.2425711027
 C    1.8736132994   -1.1667903496   -1.1192153569
 C    2.3744477581   -1.4989104507    0.2760707584
 O    3.5021758210   -2.3332048678    0.3018768099
 C    1.1634548502   -1.9774737728    1.1140593188
 C    0.8076000822   -0.4660194551    1.2481138043
 C    2.3362445759   -0.1853154731    1.1182333125
 H    0.7632688744    2.0899548015    0.0289067722
 H   -0.7347271742    1.8686670933   -0.8827001502
 H   -0.7684591880    1.8514026233    0.8867707496
 H   -0.9572090879   -0.4470917986    0.0148203674
 H    0.3528017428   -0.1740440387   -2.2130791388
 H    2.4276229225   -1.5532264317   -1.9706594158
 H    4.1908874319   -1.9272554568   -0.2358778926
 H    0.4468530895   -2.6465282808    0.6316765348
 H    1.4928980907   -2.3970003562    2.0681351220
 H    0.3150602010   -0.1452501722    2.1684750781
 H    2.8454491259   -0.3232459430    2.0756555890
 H    2.6690292838    0.7396155890    0.6407561868