16

 O   -0.1089354255    0.0669478985    0.0856116952
 C    0.0406670229    1.2513905467    0.0681842246
 O   -0.9697259132    2.1697617505    0.1407570908
 C   -0.2545083866    3.4713999300    0.0748949303
 C   -1.0861883479    4.2881071914   -0.9424681616
 N   -0.3478256168    3.5383843242   -2.0627072374
 C    0.7339210897    3.2591507600   -1.0229529915
 C    1.2635956174    2.1315677680   -0.0401022162
 C    0.8798217882    3.2184552960    1.1052648238
 H   -2.1687848016    4.1525689826   -0.9181262012
 H   -0.8276651150    5.3478721504   -0.9819251481
 H   -0.8781615561    2.6928168705   -2.2626196305
 H    1.4854329058    4.0449452413   -1.1114018339
 H    2.2347094477    1.6476680256   -0.1066294192
 H    1.6150502978    4.0208650946    1.1715501185
 H    0.6220754132    2.8281516398    2.0919591164