17

 O   -0.1251337322    1.3857407251   -0.0353892289
 C   -0.0511423811    0.0074847124    0.0247992829
 C    0.3594110052   -0.8180934889    1.2928703394
 C   -0.3885601959   -1.9271574232    0.5035116863
 C   -1.3584479075   -0.8222612616    0.0159819940
 N    0.4333732172   -2.1486467887   -0.7146203867
 C    0.7809725506   -0.7431026197   -1.0677372720
 C    0.4021423911   -0.3951570263   -2.4416360469
 N    0.1191526188   -0.1000546582   -3.5223036898
 H    0.7641437274    1.7574223254   -0.0330064617
 H    1.4229746047   -0.9667170973    1.5063796100
 H   -0.1716160559   -0.4705695067    2.1806502819
 H   -0.7340058341   -2.8525299721    0.9582615832
 H   -2.0489420891   -0.4887318196    0.7908653149
 H   -1.8684553483   -0.9760817954   -0.9361137591
 H    1.2765287520   -2.6678770821   -0.4909338137
 H    1.8511889372   -0.5287802932   -0.9527582338