21

 C   -0.0620168767    1.5337668240    0.0333645765
 C    0.0234257438    0.0323837874    0.0004327270
 C   -0.0501650452   -0.6653537854   -1.1354982975
 C   -0.0685033493   -2.1672024966   -1.1800512137
 O   -0.3146515403   -2.7463921557    0.0898980186
 C    0.5148035086   -2.1652619623    1.0813817080
 C    0.1045481214   -0.7086201109    1.3359388776
 C    1.0648457574   -0.0626721715    2.3323512210
 O   -1.1879767471   -0.6833517201    1.9581641610
 H    0.8616846447    1.9897122682    0.4083585548
 H   -0.2583560153    1.9401596175   -0.9623483983
 H   -0.8695428772    1.8532290723    0.7020302234
 H   -0.1209372966   -0.1543658453   -2.0937534591
 H   -0.8680705840   -2.5225444783   -1.8403154829
 H    0.8820672499   -2.5534263958   -1.5942059567
 H    0.3677040433   -2.7481059570    1.9948933042
 H    1.5751123160   -2.2256212831    0.7859874466
 H    2.0690675444    0.0317481673    1.9087236466
 H    0.7117880731    0.9296753048    2.6208666633
 H    1.1220223122   -0.6730558905    3.2386795108
 H   -1.7576410633   -1.2246001792    1.3971097388