17

 C    0.0001498000    1.3936517198   -0.0132424349
 O   -0.0258534110   -0.0307386869    0.0169307197
 C   -1.2397174583   -0.6217453655    0.0324265607
 N   -2.3293443253    0.1366274882    0.0169360035
 C   -3.5035817796   -0.5127159532    0.0319115660
 C   -3.6403761515   -1.8853466346    0.0615101528
 C   -2.4733687389   -2.6767151541    0.0774772959
 N   -2.5528843392   -4.0546711037    0.1612516961
 C   -1.2457252018   -2.0194106519    0.0602496821
 H    1.0572336604    1.6651212410   -0.0208259952
 H   -0.4969229823    1.7812582152   -0.9072154757
 H   -0.4937006158    1.8185610209    0.8653879372
 H   -4.3900172368    0.1174529910    0.0172383039
 H   -4.6228886555   -2.3442459640    0.0767248676
 H   -3.4135036043   -4.4698477687   -0.1604044098
 H   -1.7350854842   -4.5666570373   -0.1320682040
 H   -0.3065394560   -2.5601838862    0.0712106540