14

 O    0.0141860192    1.3566340397    0.0206630915
 C    0.0676633430   -0.0307085126    0.0342213969
 C   -0.4695223847   -0.7605278982    1.2506293872
 C   -1.3011457315   -0.7429711430   -0.0202639529
 O   -2.3610012403    0.1629400843   -0.1151884749
 C   -1.4713282627   -1.9577629241   -0.7806324275
 N   -1.6316601278   -2.9355191352   -1.3766762885
 C    1.1814559789   -0.5919410727   -0.6792751985
 C    2.1154644632   -1.0737364796   -1.2603221693
 H   -0.9146190151    1.5993848901   -0.1071591996
 H   -0.0100355846   -1.6980072109    1.5393141172
 H   -0.8277640602   -0.1297318698    2.0573189526
 H   -3.0447501401   -0.0800328834    0.5199297647
 H    2.9353325526   -1.4983671749   -1.7857067889