21

 O   -0.0603038053    1.4577819176   -0.0328086582
 C    0.0277591069    0.0422199549    0.0195520137
 C   -1.3917524182   -0.5134705764   -0.0050068722
 C   -1.4471913112   -2.0439428929   -0.0098460353
 C   -0.8950670706   -2.7019178942    1.2815193666
 O   -1.5936981630   -3.9307061459    1.4648607511
 C   -2.8424736719   -3.8164080836    0.8311132875
 C   -3.7081988697   -2.6244225730    1.1476617671
 C   -2.8444423251   -2.6471408538   -0.1058831873
 H    0.8315426166    1.8165044022   -0.0105466421
 H    0.5947496659   -0.3547018245   -0.8393103823
 H    0.5500351132   -0.2875769826    0.9325691427
 H   -1.9403489898   -0.1208923478    0.8595895542
 H   -1.8935739030   -0.1215490215   -0.8971758902
 H   -0.8742603242   -2.4162464812   -0.8700564239
 H    0.1732203733   -2.9309684244    1.2349222977
 H   -1.0575052023   -2.0363901589    2.1434374087
 H   -3.2750976271   -4.7844753314    0.6088092504
 H   -4.7779475126   -2.7377762310    1.0082959943
 H   -3.4357366524   -1.9783262204    1.9753493701
 H   -3.3246722494   -2.6851627513   -1.0767651426