22

 C   -1.2948622303   -0.5776767911   -0.2615401875
 C    0.0830838699    0.0215335346    0.0543568075
 C    0.0247181356    1.5543033659    0.0749964345
 C    0.6126276648   -0.5370121403    1.3781014330
 C    0.9478702985   -2.0548535743    1.3875743321
 N    2.3644048809   -2.1405798822    1.7642812292
 C    2.7725978621   -0.9454277088    1.9000852979
 C    4.1536348904   -0.5174152265    2.2623267768
 O    1.8904382736    0.0742672141    1.7032668386
 H   -2.0245192292   -0.3061097918    0.5107643890
 H   -1.6691880905   -0.1970742124   -1.2166355720
 H   -1.2680109851   -1.6697606834   -0.3271118306
 H    0.7885260631   -0.2892829145   -0.7294921836
 H   -0.6787918270    1.9077733611    0.8386144934
 H    1.0047076277    1.9824854055    0.2964020243
 H   -0.3131656268    1.9422528949   -0.8913647238
 H   -0.0784641695   -0.2669122145    2.1870245468
 H    0.3330460034   -2.6169752981    2.0977036090
 H    0.8019310403   -2.5144099838    0.4020284880
 H    4.7857906819   -1.3943157106    2.3972316589
 H    4.5716113134    0.1203542304    1.4769992503
 H    4.1388230928    0.0715100657    3.1848390181