23

 C    0.1343945459    1.5786710152    0.1668842780
 C   -0.0610237378    0.0732623777   -0.0314705851
 C    0.6317061776   -0.5086045980   -1.2880670733
 O    2.0075062259   -0.1340206943   -1.3220981446
 C    0.5482063096   -2.0446176691   -1.2424972615
 O    1.3659222142   -2.4566782097   -0.1432966017
 C    0.0088776871    0.0529912372   -2.5852175012
 C    0.7178783103   -0.3728827735   -3.8711969655
 O   -1.3600717699   -0.3550369851   -2.5782758792
 H    1.1943412908    1.8405640521    0.1116241152
 H   -0.3991093327    2.1670522145   -0.5865257742
 H   -0.2456818302    1.8873872529    1.1456783309
 H    0.3415596535   -0.4626356827    0.8347285116
 H   -1.1276480416   -0.1662473199   -0.0872427775
 H    2.4472448690   -0.7295681660   -0.7011551430
 H   -0.4916887118   -2.3657172678   -1.1121382719
 H    0.9325002616   -2.4699974448   -2.1772446062
 H    1.5097964511   -3.4041155711   -0.2087533442
 H    0.0769323506    1.1484606129   -2.5139696315
 H    0.3055714805    0.1767999352   -4.7255155091
 H    1.7851581474   -0.1534588775   -3.8049400201
 H    0.5849481966   -1.4405818219   -4.0686273944
 H   -1.7731071176   -0.0158170860   -3.3778414216