18

 C   -0.0967420713    1.5639669642    0.1906959059
 C    0.1047129849    0.0900346367    0.0607602576
 O   -0.8272456912   -0.8000071257    0.6755492645
 C    0.5628157850   -0.9579516545    0.9762663635
 C    1.2580712149   -1.7184266533   -0.2037683893
 N    0.2196773712   -2.0329943486   -1.2248266728
 C    0.8029853779   -0.6764480575   -1.1468481638
 C    1.5065040187   -0.0225832827   -2.3039882901
 O    2.2371678766   -0.9638795816   -3.0831572089
 H    0.8180589390    2.1111671469   -0.0605651604
 H   -0.8925430245    1.9120252042   -0.4777926639
 H   -0.3810622784    1.8138326786    1.2163077452
 H    0.8669157858   -0.9273635154    2.0160389777
 H    2.1983578697   -2.2514278137   -0.1634185557
 H    0.7391944160   -2.4936425841   -1.9759183113
 H    0.7839439588    0.5276433643   -2.9250487204
 H    2.2307335055    0.7127059955   -1.9317240730
 H    1.6709520014   -1.2584323433   -3.8018048547