15

 O   -0.0214849685    0.1441745015    0.6202556249
 C   -0.0325260875    1.2205438548    0.0998400461
 O   -1.2055782740    1.8086882777   -0.2501077896
 C   -1.1619264312    3.1155328768   -0.8389712153
 O   -0.2751695971    3.9577097031   -0.1797893960
 C    1.0591166498    3.5335805546   -0.3902593303
 C    1.9379455318    3.6562034790    0.8603227560
 O    2.0417105794    2.2156189132    0.9793465086
 C    1.2407196133    2.0126561478   -0.2006918622
 H   -0.9096659334    3.0158863605   -1.9062474185
 H   -2.1660015458    3.5244018191   -0.7253481180
 H    1.4555281636    3.9572776685   -1.3194882228
 H    2.9170319302    4.1227488366    0.7096247955
 H    1.4298561074    4.1111369421    1.7164293536
 H    1.7980278420    1.4894222047   -0.9874042820