18

 C    0.0213260369    1.4709374494    0.1191345693
 C    0.0345536711   -0.0300499862    0.0030504550
 N    1.1570456656   -0.6351608032   -0.0734241984
 N   -1.2039562005   -0.6922001006    0.0108783554
 C   -1.2870384064   -2.1478260599   -0.0674127112
 C   -2.7868322744   -2.4251091254    0.1533598946
 N   -3.3741008623   -1.1601911295   -0.2483241017
 C   -2.4797824978   -0.1124653351   -0.1315922223
 O   -2.7580805035    1.0634167190   -0.1651067036
 H    1.0584013575    1.8023991554    0.1616976775
 H   -0.4888960068    1.9292337062   -0.7302292897
 H   -0.5184709192    1.7964478429    1.0114647793
 H    1.0556427161   -1.6455838957   -0.1618771345
 H   -0.9526436940   -2.5047270976   -1.0502759186
 H   -0.6670596078   -2.6208333436    0.6986695462
 H   -3.1421193269   -3.2561945061   -0.4612263689
 H   -2.9919939792   -2.6625470396    1.2064262484
 H   -4.3405364983   -0.9432964403   -0.0637824069