12

 O    0.0053281962   -0.0358803678    0.0637666972
 C   -0.0141569667    1.1386543963   -0.0832978411
 C   -1.0399658952    2.3121139814    0.0138444202
 O   -0.0280515247    2.9091619553    0.8933769138
 C    0.9782310730    2.3423322143   -0.0122216849
 C    0.6755257091    3.0613727276   -1.3395593099
 O   -0.0586941362    2.2352420914   -2.2612698938
 C   -0.7933017979    3.0393656371   -1.3205979462
 H   -2.0347092689    2.2586169674    0.4488851965
 H    1.9850324017    2.3188066789    0.3969658210
 H    1.2971735690    3.8393288151   -1.7660615788
 H   -1.4487718994    3.7981872430   -1.7306159239