20

 C   -0.6709347973    1.3491099647    0.0951233683
 C    0.0500987157    0.0198546293   -0.0509664782
 O   -0.8211628514   -0.9732981676   -0.5667384751
 C    1.4284515265   -0.0225019453   -0.7746761157
 C    1.9110356584   -1.0722257092    0.2574698625
 C    0.7500236012   -0.6286349333    1.2120360793
 C    1.2191124830    0.3824919321    2.2686089586
 C    0.0041767583   -1.7023802163    1.8598368986
 N   -0.5564519597   -2.5489570219    2.4125602210
 H   -0.0323920484    2.1242957908    0.5263090729
 H   -0.9945536311    1.7035910821   -0.8914102224
 H   -1.5612242833    1.2342089853    0.7207472334
 H   -1.1307919543   -0.6797412952   -1.4305531141
 H    1.3941789250   -0.3327654273   -1.8212123400
 H    1.9722892720    0.9232301296   -0.7035392489
 H    1.7736940909   -2.0935821391   -0.0967651282
 H    2.9182949508   -0.9600166264    0.6630419793
 H    1.8114568525    1.1775962634    1.8072900057
 H    0.3734404457    0.8375723159    2.7907119034
 H    1.8463750053   -0.1191121916    3.0105894796