18

 C   -0.3137449743    1.5562462367   -0.0152028637
 C   -0.0183077946    0.0552898594   -0.0187019894
 C    0.8018996471   -0.4287518285   -1.2088035006
 C    1.8422086357   -1.1791880732   -0.8448950245
 C    1.8656335887   -1.3592477451    0.6498235539
 C    2.9067453907   -0.6144519483    1.5325141175
 C    1.7596262564    0.3821230433    1.8059058574
 O    1.6587134360    1.4400774535    2.3627601651
 N    0.8248726397   -0.3980785190    1.1062498650
 H    0.6021690151    2.1444678340   -0.1031516673
 H   -0.9660685144    1.7971023620   -0.8602516842
 H   -0.8160119449    1.8520997273    0.9082342795
 H   -0.9776811220   -0.4832117807    0.0100384041
 H    0.5212372488   -0.1842802918   -2.2272087629
 H    2.5484742456   -1.6553775412   -1.5141793790
 H    1.6800257361   -2.3981099520    0.9485958618
 H    3.2878995788   -1.1556609809    2.4007995810
 H    3.7378402814   -0.1588875554    0.9899566766