17

 C    0.5006817293    1.4341124937    0.0996587083
 O    1.1071979757    0.2111534613   -0.3374374542
 C   -0.2752486753    0.1852641751    0.0277617721
 C   -0.6060819480   -0.6001322892    1.2388875421
 N    0.3802063460   -0.8517286268    2.3084358629
 C   -0.2667610434   -1.9937508719    1.6137055036
 C   -1.7051646166   -2.1947860690    2.1912013746
 N   -1.9432599583   -1.1812842325    3.2477371488
 C   -2.0526745113   -0.8068449227    1.8183544359
 H    0.8326580017    1.7945387119    1.0710726026
 H    0.3796048825    2.1913917703   -0.6727912755
 H   -0.9584441107    0.0602719627   -0.8141469789
 H    1.2885127255   -0.7411834416    1.8506808542
 H    0.3120467336   -2.7344789094    1.0778383886
 H   -2.2882594272   -3.1037293498    2.1267245980
 H   -2.8988116362   -1.3316715706    3.5748555493
 H   -2.9617273173   -0.3959305814    1.3982339476