20

 O   -0.1695264063   -0.0088719666   -0.2393504551
 C   -0.0854558623    1.1758041281   -0.0463154520
 C   -1.2624520980    2.1348088223    0.1810594996
 C   -0.6439915329    3.5385597752    0.1253039050
 C    0.8053382434    3.3402136061    0.6222169167
 C    1.2107309998    1.9872500318    0.0214216575
 N    1.6792717989    4.4204140196    0.1902484630
 C    1.7346474164    5.5984044679    1.0519524142
 C    2.8794743971    4.6499950577    0.9903454330
 H   -2.0619630922    1.9517487205   -0.5407027309
 H   -1.6750389247    1.9130743388    1.1741817313
 H   -0.6008952490    3.9011816286   -0.9076420810
 H   -1.1895582258    4.2808876177    0.7130303167
 H    0.7924993138    3.2532545176    1.7258616528
 H    1.9944274660    1.4486186580    0.5582584048
 H    1.5638004499    2.1470717531   -1.0064709674
 H    1.7807516390    6.5558186986    0.5415051711
 H    1.1364137484    5.5955049520    1.9619281829
 H    3.0438884646    4.0135513608    1.8585672915
 H    3.7774027039    4.9010184520    0.4335765963