14

 C   -0.0244815658    1.4618019131    0.1317087505
 C   -0.0146349248   -0.0207451055   -0.0500100677
 N   -0.0771636544   -0.6084056280   -1.1679764158
 C   -0.0609216507   -2.0407204359   -1.2370871523
 O   -0.1211678688   -2.5958570077   -2.3105949618
 C    0.0303887211   -2.7306733398    0.0422547739
 C    0.0919127736   -2.0115727650    1.1746262280
 O    0.1772806080   -2.5234784230    2.4036611662
 O    0.0727994963   -0.6573851960    1.1821172576
 H    0.8873536012    1.7890426259    0.6415120047
 H   -0.0934027869    1.9400592865   -0.8437337777
 H   -0.8734977181    1.7635773577    0.7534327599
 H    0.0481086638   -3.8102954354    0.0753866686
 H    0.2077277354   -1.7976407271    3.0404139659