21

 C   -0.1659217601    1.5202099671   -0.2610447587
 C    0.0305457676    0.0502841093    0.1281438216
 C   -1.2819037583   -0.7009177771    0.2113006056
 C   -1.9274078305   -1.4099347299   -0.9586687047
 O   -0.9327035852   -2.0085612493   -1.7983363091
 C   -0.4891849221   -2.8754831555   -0.7193449807
 C   -1.4559395361   -2.1976097629    0.2564179185
 O   -2.1006537058   -2.7891713019    1.3149370538
 C   -2.9362518961   -3.8855064044    0.9751601270
 H    0.7923116172    2.0457927427   -0.3162796662
 H   -0.6523423830    1.6046683603   -1.2383138494
 H   -0.7923298174    2.0449807899    0.4689842564
 H    0.6759667868   -0.4342676290   -0.6112021169
 H    0.5483991343   -0.0122280190    1.0935339752
 H   -2.0381478146   -0.2354081858    0.8438022130
 H   -2.8904044876   -1.1794148841   -1.3989285884
 H   -0.7415953410   -3.9175495854   -0.9444226407
 H    0.5844413860   -2.7902076618   -0.5190672891
 H   -3.4590283627   -4.1753772219    1.8890569742
 H   -3.6709248130   -3.6043021972    0.2088066855
 H   -2.3609580785   -4.7468971441    0.6113465932