19

 O    0.0371768593    0.0159933292    0.0890056715
 C   -0.0163120874    1.2091125008    0.0365071710
 C   -1.1545674936    2.2465919309    0.1016306793
 C   -0.0769042911    3.2618904650    0.5979043817
 C    1.0562925325    2.3493888543    0.0345334204
 O    1.5753648486    2.6722667469   -1.2381177561
 C    0.6859953577    3.2409308844   -2.1924817747
 C   -0.6105474727    2.4574813964   -2.4335156936
 C   -1.6729439893    2.5587083870   -1.3191758651
 H   -1.9830352041    2.0232300753    0.7777856530
 H   -0.1385156697    4.2783195882    0.2075730652
 H   -0.0259490908    3.3060710972    1.6883821672
 H    1.9232989383    2.1738646250    0.6761214911
 H    0.4505363861    4.2832995811   -1.9266549921
 H    1.2718549401    3.2696113860   -3.1156429414
 H   -1.0523518696    2.8276119075   -3.3660909857
 H   -0.3502541795    1.4066997689   -2.6104206642
 H   -2.4860940145    1.8641887403   -1.5546589269
 H   -2.1082425404    3.5661088158   -1.3151735106