22

 C   -1.0253515570    1.1875924142   -0.3530446488
 C   -0.0816878061    0.0307141443   -0.0003810293
 C    0.5428976997   -0.5911969673   -1.2323894961
 C    1.0159708963   -1.9819964238   -1.3814967574
 C    0.1499481135   -2.9829798398   -0.6278262781
 C   -1.0497959792   -2.3977794961   -1.4224246721
 N   -0.1604542006   -1.4628099055   -2.2047532019
 O    0.5061093645   -4.2953620875   -0.9833857754
 C   -0.3018167582   -5.2742190473   -0.3697659009
 H   -0.4993928503    1.9652387369   -0.9170127012
 H   -1.8590170186    0.8414029180   -0.9719805392
 H   -1.4391803314    1.6487186468    0.5487284275
 H    0.7328546159    0.3993367551    0.6362463923
 H   -0.6152491272   -0.7126261321    0.5992396968
 H    1.1466755214    0.1254873518   -1.7897989245
 H    1.9652776855   -2.2494843389   -1.8349321772
 H    0.1206248441   -2.8880606729    0.4694928349
 H   -1.4692511077   -3.1382981147   -2.1067929782
 H   -1.8610029570   -1.9109829894   -0.8722299122
 H   -0.2482458948   -5.2123359803    0.7287970638
 H   -1.3577285583   -5.1872530846   -0.6674126682
 H    0.0720805154   -6.2497916867   -0.6887171845