11

 N   -0.0746657857    1.3127970450    0.0082375936
 C    0.0549640592   -0.0391361242    0.0014224528
 O    1.1080167137   -0.6365820397   -0.0103718956
 C   -1.2643222626   -0.7665210326    0.0097576362
 N   -2.4108707974   -0.1351908877    0.0213536444
 O   -3.3523078358   -1.1578182728    0.0254790503
 C   -2.6511558137   -2.2992460338    0.0156960639
 N   -1.3689102833   -2.1389557442    0.0057699097
 H    0.7610832885    1.8728094555    0.0020745342
 H   -0.9786591649    1.7546379661    0.0166575477
 H   -3.2153436280   -3.2200565415    0.0170803428