17

 O    0.1715555765    1.3851251660    0.0664848981
 C    0.0447449708   -0.0226325673   -0.0438822143
 C   -1.3947575175   -0.4467822142    0.0281696821
 C   -2.0655548952   -0.9838436378    1.2314433227
 N   -1.8566341896   -1.8902082034    0.0841049072
 C   -2.9448685846   -1.5464930969   -0.8927322754
 C   -2.4310159882   -0.0777818678   -1.0479678453
 C   -3.3403050041    1.0212451097   -0.7629311903
 N   -4.0799331962    1.8727304156   -0.5077091578
 H   -0.1924697889    1.6533860549    0.9171386212
 H    0.4667633889   -0.2821230689   -1.0210116013
 H    0.6261816846   -0.5626155320    0.7186611633
 H   -1.4345403094   -1.2294796930    2.0802278032
 H   -3.0767760840   -0.6742086066    1.4870676340
 H   -2.8394941075   -2.1316543758   -1.8065555490
 H   -3.9546560667   -1.6666057088   -0.4919506276
 H   -1.9611822891    0.0833463362   -2.0206513807