18

 C   -0.0404457020    1.4192451294    0.1299056826
 O   -0.0122077533   -0.0036730486    0.0608265127
 C    0.6253942041   -0.6225309986    1.0658032609
 N    1.2158943702   -0.0036572804    2.0829044137
 N    1.7086680609   -1.0194963278    2.8027244218
 C    2.4040777642   -0.8054344938    4.0502327926
 N    1.4661533123   -2.2318685532    2.3195847642
 C    0.7733411023   -2.0197164549    1.1987231742
 C    0.2906133650   -3.1149953850    0.3092338233
 H    0.9739310461    1.8320856737    0.1206658925
 H   -0.5903399309    1.7529710541   -0.7509590958
 H   -0.5456708447    1.7573223795    1.0409415149
 H    1.7229487016   -0.4162546579    4.8137258529
 H    2.8024351923   -1.7675845105    4.3696741850
 H    3.2191855282   -0.0921504452    3.9050770284
 H   -0.7980703281   -3.0838699142    0.1927605447
 H    0.7228141081   -3.0359394109   -0.6943414706
 H    0.5669511836   -4.0841700357    0.7292880721