20

 O   -0.0735455783    1.4321991845   -0.0236832884
 C   -0.0227937129    0.0159591419    0.0226150493
 C    0.2391163059   -0.5365202783    1.4511922447
 C   -1.2966052994   -0.6060195737    1.6671063925
 C   -1.4742191800   -0.5411709910    0.1200386590
 C   -2.6035423238    0.2511389163   -0.4728505800
 C   -3.0981970061   -0.0414019890   -1.8680923179
 C   -3.9534679711   -0.3938843081   -0.6764546877
 H    0.8114844021    1.7651758820    0.1549761693
 H    0.6055346735   -0.3769777006   -0.7886718976
 H    0.7009947864   -1.5280150017    1.4247522879
 H    0.8206802075    0.1063507075    2.1181016722
 H   -1.6995433664   -1.4787540784    2.1857385169
 H   -1.6788737611    0.2977616623    2.1480784870
 H   -1.4821779292   -1.5593234450   -0.2873828200
 H   -2.6095963397    1.2952910219   -0.1781021208
 H   -3.3995341067    0.7925064869   -2.4922423034
 H   -2.6303381241   -0.8550784160   -2.4133411476
 H   -4.0589038005   -1.4437995380   -0.4219095473
 H   -4.8423122459    0.1973626164   -0.4851278980