16

 C   -0.0144461764    1.4714506847   -0.0494634574
 C    0.0048856855   -0.0204175331    0.0333827114
 N    0.0381738294   -0.7499926698   -1.0617581060
 N    0.0405266040   -2.0532430875   -0.6150103327
 C   -0.0364975095   -3.1311332670   -1.4966347001
 O   -0.0170439001   -3.0485892214   -2.6926710319
 C    0.0377858723   -2.1161625142    0.7708823601
 N   -0.0083787027   -3.3304287697    1.4490235182
 C    0.0072516720   -0.8233010207    1.2170455976
 H    0.8492455025    1.9071141472    0.4647628178
 H    0.0047445076    1.7856341780   -1.0944234723
 H   -0.9135891480    1.8801147365    0.4245479748
 H   -0.1309101709   -4.0831513837   -0.9451347348
 H    0.7186643628   -3.9854939145    1.1892931060
 H   -0.0055927349   -3.1993515402    2.4515107416
 H    0.0094662264   -0.4908158547    2.2431225275