16

 O   -0.2828148526    1.4437502872    0.0131291823
 N    0.0062356449    0.0720280828    0.0942042152
 C   -1.0619726085   -0.6154051202    0.0663148803
 C   -2.4980251831   -0.1545867045   -0.0348627963
 O   -3.2510525429   -1.3338118250   -0.2597934458
 C   -2.5560308716   -2.4275575593    0.3314713735
 C   -1.0656271881   -2.1271823002    0.1146362168
 C   -0.5104509882   -2.7078057185   -1.1903779137
 O   -1.0640505335   -3.5420456198   -1.8530060678
 H    0.5927614333    1.8440675478    0.0475801845
 H   -2.7935601776    0.3556342630    0.8972112694
 H   -2.6599470277    0.5419739000   -0.8626200396
 H   -2.7834301212   -2.5060373164    1.4051428409
 H   -2.8695587712   -3.3401100022   -0.1779512809
 H   -0.4188811061   -2.4950066950    0.9196822618
 H    0.4774698340   -2.2870395896   -1.4754327907