23

 C    0.4074185581    1.4059095826   -0.2488768993
 C   -0.0180289892   -0.0521738171   -0.0375237592
 O   -1.4342933675   -0.0897233579    0.1655534782
 C    0.4180164398   -0.9883933787   -1.2004697461
 C    1.7654573540   -1.6077920341   -0.8055763398
 C    3.0511809630   -0.7511792893   -1.0070349017
 C    3.1859645374   -0.5777138986    0.5335601823
 C    1.8966286071   -1.4252072753    0.7498269044
 C    0.6264973118   -0.6989677175    1.2120487221
 H    1.4891222891    1.5144558313   -0.3601305654
 H   -0.0548426629    1.8122957459   -1.1576461557
 H    0.0852420557    2.0160173090    0.6002805388
 H   -1.8490582549    0.3890540346   -0.5599024809
 H   -0.3432834957   -1.7720685483   -1.2766192280
 H    0.4548107726   -0.4699923046   -2.1660571699
 H    1.8627886586   -2.6289653280   -1.1801779706
 H    3.8790499712   -1.2930199346   -1.4710647141
 H    2.9030556975    0.1734928292   -1.5727576140
 H    4.0880643792   -1.0278882177    0.9552289426
 H    3.1276676642    0.4514653669    0.8996023329
 H    2.0686867465   -2.3351979933    1.3283767284
 H    0.8151135822    0.0328175892    2.0046043619
 H   -0.0975828375   -1.4209167735    1.6034725930