23

 C   -0.7820634439    1.2584111611    0.1705776168
 C    0.0911423661    0.0190082158   -0.0496843397
 C    0.9596394798    0.1727569177   -1.3241308887
 C    2.2496500219   -0.6804309465   -1.2950260368
 C    2.7619285298   -0.8646183977    0.1423370298
 O    4.0581601373   -1.4059227133    0.1991747556
 C    1.7126055954   -1.6459659662    0.9577422357
 C    0.9979234393   -0.2826112660    1.1619474371
 C    2.3996055068    0.3829137791    1.0105206277
 H   -0.1647377684    2.1424892949    0.3703961513
 H   -1.3953462020    1.4756647244   -0.7108055132
 H   -1.4564252384    1.1227177818    1.0226980170
 H   -0.5757713067   -0.8452891382   -0.1757114907
 H    0.3696514590   -0.0480653791   -2.2194582604
 H    1.2454205313    1.2273475402   -1.4105459442
 H    2.0912625291   -1.6716363723   -1.7357755684
 H    3.0218653279   -0.1874632149   -1.9022278334
 H    4.6181307447   -0.9180061685   -0.4143666194
 H    1.1661099575   -2.4496179508    0.4537626252
 H    2.1523168665   -2.0223121466    1.8849183235
 H    0.4679039832   -0.1326969658    2.1053220058
 H    2.9564369469    0.3571934026    1.9501891782
 H    2.4726684867    1.3816123883    0.5701886711