12

 O    0.1214879621    1.2490780937    0.0996017682
 C    0.1070025773   -0.0814315658    0.0516444519
 N    0.1102754449   -0.6544351529   -1.1540806266
 C    0.0949043327   -1.9913107151   -1.1079924051
 O    0.0970082415   -2.6396527504   -2.2703649615
 N    0.0776307278   -2.7491442116   -0.0197167114
 C    0.0765118772   -2.0402378065    1.1039919434
 O    0.0595752601   -2.7424525775    2.2330911270
 N    0.0905331244   -0.7080931326    1.2205059215
 H    0.1323498567    1.5599491227   -0.8164725148
 H    0.1101462126   -1.9667845754   -2.9652027254
 H    0.0609652128   -2.0992051885    2.9564139427