18

 C   -0.1789758678    0.6224864706   -0.1990451069
 O    1.0677769157    0.3654791084    0.4227174467
 C    0.9724662249   -0.5063122833    1.5355826754
 C    0.6693203600   -1.9301910358    1.1648632084
 N   -0.3308555475   -2.6555766948    1.6461741239
 C   -0.1600724735   -3.8530148678    1.0277179485
 N    0.8659639162   -3.9136725021    0.1943122874
 N    1.3931254848   -2.6691672341    0.2909922676
 C    2.5835494407   -2.3128723909   -0.4584580515
 H   -0.8823934317    1.0945931700    0.5022029148
 H    0.0151472521    1.3077909269   -1.0268546292
 H   -0.6427587503   -0.2930959971   -0.5903597829
 H    1.9406567738   -0.4384806278    2.0436856187
 H    0.1934809536   -0.1828272361    2.2386235557
 H   -0.8112708619   -4.6997651638    1.1861002104
 H    2.5199842731   -2.7662755288   -1.4486319641
 H    2.6254623357   -1.2276611872   -0.5491446002
 H    3.4831891620   -2.6836027965    0.0427887273