15

 N    0.1043436041    1.3300825356    0.1433204649
 C   -0.0567451661   -0.0268737284    0.0659789594
 C   -1.1783607968   -0.8229098945    0.0729432394
 C   -0.6933558320   -2.1605417432    0.0506439430
 N   -1.4792454412   -3.2906584405    0.1137916279
 C    0.6949507090   -2.0936205256    0.0246381038
 O    1.0660884305   -0.7452417590    0.0364170481
 C    1.7032218768   -3.0971544493   -0.0254345030
 O    2.9106188456   -2.9294663676   -0.0583751931
 H    1.0020900179    1.6651428620   -0.1751066890
 H   -0.6741185537    1.8824535233   -0.1799072752
 H   -2.2053114185   -0.4964049342    0.1102313877
 H   -2.4153928809   -3.1872018414   -0.2465709183
 H   -1.0452833615   -4.1518790495   -0.1807287417
 H    1.2684056268   -4.1273073676   -0.0347603838