16

 O    0.2084802861    1.3822460690   -0.0905754284
 C    0.0814602594   -0.0101187714   -0.0104344846
 C   -0.4150620293   -0.7195174367    1.2430707460
 C   -1.2345471670   -0.7005055573   -0.0097191945
 C   -2.6838757448   -0.2612103532   -0.2775886189
 C   -2.5093783567   -0.6758730840   -1.7597267012
 C   -1.9269283617   -1.7853995793   -0.8473977880
 O   -3.1228064674   -1.6467783438    0.0246718410
 H   -0.4946657765    1.7851864797    0.4287885694
 H    0.9045937456   -0.4723727874   -0.5473054567
 H    0.0752050230   -1.6373413883    1.5533793242
 H   -0.7507613924   -0.0986918988    2.0703262078
 H   -3.2617883492    0.5560348009    0.1559047290
 H   -3.4348375107   -0.9441797023   -2.2704734760
 H   -1.8169183632   -0.0979421427   -2.3759254548
 H   -1.5945564453   -2.7935604744   -1.0948964845