14

 N   -0.0463016996    1.4148780415   -0.0785594007
 C   -0.0376064971    0.0288799014   -0.0342097017
 N   -1.1798521821   -0.6349732523    0.0557279864
 C   -1.1491945995   -1.9737761938    0.0262666401
 C    0.0538200866   -2.6561044050   -0.0838202720
 O    0.0781564848   -4.0090049871   -0.1116788714
 N    1.2195871053   -2.0039394460   -0.1587850411
 C    1.1764594115   -0.6888476366   -0.1366688322
 O    2.3303904782    0.0159788722   -0.2001609838
 H    0.7977180173    1.8568535564    0.2539294791
 H   -0.8942068313    1.8178954839    0.2936114226
 H   -2.0897446572   -2.5080655790    0.0974117503
 H    1.0053466287   -4.2674149950   -0.1881999905
 H    3.0500068344   -0.6274585606   -0.2499266453