17

 N    0.0499287037    1.1839866064    0.1983596156
 C   -0.0081686171   -0.1657879856   -0.0068581261
 O    0.9907516921   -0.8716458492   -0.1079570191
 C   -1.3481021925   -0.7726704080   -0.0082385583
 C   -1.7113081393   -1.9086757123   -0.9569081391
 C   -1.6022935090   -2.1861784218    0.5061009898
 O   -0.7080059154   -3.0642587108    1.0708913329
 C   -2.8004212054   -1.6092142457    1.2622505493
 N   -2.5985972584   -0.2536450486    0.6042421638
 H    0.9576261028    1.6168793066    0.1210681740
 H   -0.7543043966    1.7550888750   -0.0076587134
 H   -2.6719073171   -1.8453101098   -1.4616050382
 H   -0.8788214616   -2.2780745667   -1.5455022478
 H    0.1746348021   -2.7475123606    0.8183545049
 H   -3.7821768185   -2.0495039550    1.0645559839
 H   -2.6129411867   -1.5861039617    2.3386079761
 H   -2.3649421131    0.4167730977    1.3325789217