16

 O   -0.9091708586    0.8921211291   -0.2818966830
 C    0.2453667745    0.7780417785    0.0389089779
 C    1.2559490808    1.9240263750    0.0046079368
 N    2.6208279656    1.4037032191    0.1826438843
 C    3.2687547697    1.7853934084   -0.8401520921
 O    2.6616174558    2.5280699642   -1.7870731307
 C    1.3180628915    2.7270261798   -1.3098713181
 C    0.2554198314    2.8806374755   -2.3475448130
 C    0.7241355032    4.0785007963   -1.5384277058
 H    0.6663503586   -0.1805187690    0.4099433271
 H    0.9956619223    2.5773849126    0.8498286397
 H    4.3096951820    1.5600476027   -1.0431076360
 H    0.5753791920    2.8225700703   -3.3817618466
 H   -0.7172797907    2.4576337264   -2.1324397319
 H    0.0641280463    4.4743035781   -0.7729943822
 H    1.3460729056    4.8134740031   -2.0366528764