20

 C    0.5497615540    0.3418978910   -0.7047773329
 C   -0.2738625173    0.4174067645    0.5652959349
 O    0.0148359309    1.1474342651    1.4848203565
 C   -1.5344316624   -0.4519964008    0.6307546154
 N   -1.3906827936   -1.7248317146   -0.0484223736
 C   -0.6904511287   -2.8508352168    0.6435637622
 C   -1.8953519067   -3.7564374014    0.3793770572
 C   -3.1231502230   -3.1553003673    1.0165563167
 C   -2.5765441023   -2.5559924361   -0.2536623844
 H    1.3024670006    1.1312639717   -0.6981481762
 H    1.0397321357   -0.6348826677   -0.7742225726
 H   -0.0899052373    0.4240246630   -1.5890325669
 H   -1.8307120989   -0.5189834879    1.6898509013
 H   -2.3232571670    0.1123409850    0.1119255695
 H    0.2266881481   -3.1416095947    0.1210754544
 H   -0.4559143407   -2.6686810284    1.7013165182
 H   -1.8506352953   -4.7772132188    0.0259228094
 H   -4.0349488756   -3.7315692421    0.8935119715
 H   -3.0505141023   -2.6286390506    1.9645278900
 H   -3.1562039485   -2.4722079632   -1.1670393805