16

 O    0.0673529224   -0.0650234498    0.2842488379
 C    0.0447860706    1.1076328833    0.0130374869
 C   -1.2789803360    1.9458626558    0.0654987172
 N   -1.3944306351    2.9708137073   -0.9805018138
 C   -0.7615067312    4.3196085961   -1.1007584801
 C    0.6675662569    4.5653073486   -0.4921453712
 C    0.9197170517    3.1297816791   -0.9273094436
 C    1.1764875746    2.0715440730   -0.1464983404
 C   -0.2683828056    3.1367525688   -1.8705318824
 H   -2.1243603622    1.2591065515   -0.0408221683
 H   -1.3345573103    2.3879566357    1.0678733518
 H   -1.4300030579    5.1118998666   -1.4203808914
 H    1.1525754932    5.3420810464   -1.0930866946
 H    0.7766256982    4.7924808485    0.5715839484
 H    1.8355775988    2.1460849530    0.7176698348
 H   -0.3165751281    2.8721145261   -2.9203218309