15

 O    0.1077827289   -0.0564696020    0.0011087160
 C    0.0023286790    1.1434253966    0.0091870586
 C   -1.2412720415    2.0418552282    0.0317137045
 N   -0.7642311119    3.4254372780    0.0322573304
 C    0.5103252062    3.3643013258    0.0136204079
 C    1.4646985357    4.5303345969    0.0062435157
 C    0.8271549181    5.8375852670    0.0210654785
 C    0.3387771409    6.9332474288    0.0327847537
 N    1.0418279452    2.0711037610   -0.0009012658
 H   -1.8738033370    1.8441266518   -0.8406508618
 H   -1.8486277988    1.8347691145    0.9196583034
 H    2.1359269136    4.4290365658    0.8714602805
 H    2.1123539824    4.4373535606   -0.8776644775
 H   -0.1111807841    7.8950034630    0.0431967824
 H    2.0164027534    1.8164980039   -0.0164153164