16

 C   -0.0339506650    1.4693686720    0.0305900634
 C    1.4631992611    1.9362902667    0.0985417486
 C    2.1757110806    0.8012482756   -0.6484645684
 C    3.3846507506   -0.0859134710   -0.2279357184
 O    3.1279694797   -0.6735989914    1.0453361441
 C    2.5023145037   -1.2760677671   -0.1155849038
 C    1.2954444159   -0.3959659640   -0.3435305393
 C    0.0676343791   -0.0590138194    0.0308607025
 H   -0.6208635119    1.8352884178    0.8800838906
 H   -0.5292853290    1.8494781062   -0.8746428928
 H    1.6177236617    2.9334257661   -0.3227549798
 H    1.7832934914    1.9462318784    1.1454197236
 H    2.2421898774    0.9832900820   -1.7302971676
 H    4.4200893553   -0.0153702294   -0.5417217963
 H    2.6900951456   -2.3287739293   -0.2836603888
 H   -0.7334372161   -0.7066786133    0.3669055323