19

 O   -0.0755919844    1.3774603032    0.1906104300
 C   -0.0154267531   -0.0041137360    0.0089112174
 C   -0.5197778247   -0.6111472094   -1.2771734562
 C   -1.2856018400   -0.8068301740    0.0221592700
 C   -1.0410715997   -2.0869312003    0.8022250708
 C    0.5089802483   -2.2315856182    0.8626220630
 C    1.0402911166   -0.7762823157    0.7903607394
 C    0.9557309591   -2.9345686547    2.1222018214
 O    1.5779540367   -3.9633897916    2.1661912480
 H    0.6124434316    1.7812602582   -0.3494912828
 H   -0.9628100916    0.0847692376   -1.9809945313
 H    0.0022368712   -1.4468968881   -1.7327144567
 H   -2.2400426834   -0.3027786744    0.1199781642
 H   -1.4509624593   -1.9776365642    1.8153020186
 H   -1.5049577004   -2.9739097502    0.3599704025
 H    0.8727366386   -2.8194546291    0.0167826269
 H    2.0426594376   -0.7312442642    0.3510833386
 H    1.0987914492   -0.3338954087    1.7934954637
 H    0.6498528476   -2.4062445503    3.0583472324