25

 C   -0.4020895672    2.2350394368   -0.0153922636
 C    0.3591840715    0.9411018573   -0.2779867320
 C    1.7858606703    1.0623181167   -0.8825821239
 C    2.3208083025    0.0180933969    0.1362763505
 C    3.3529332646    0.5432523070    1.1477186880
 C    2.5196735886    1.3573388725    2.1558129170
 C    1.2242858536    0.5336549570    2.2968087866
 C    0.0931056649    1.2041681915    3.0791549429
 C    0.9272449733    0.0216411379    0.8664248165
 H    0.1839010576    2.9442468800    0.5774141362
 H   -0.6370942179    2.7262618757   -0.9673274228
 H   -1.3483495849    2.0591868249    0.5065097241
 H   -0.2618144435    0.3122610163   -0.9257753550
 H    1.8820719032    0.7974542081   -1.9389066935
 H    2.2280081554    2.0557730880   -0.7451727533
 H    2.6209379453   -0.9272850284   -0.3205319487
 H    3.8348912821   -0.2955541286    1.6647881489
 H    4.1470186180    1.1272714034    0.6701954489
 H    3.0307509361    1.5046557484    3.1126224491
 H    2.2957647620    2.3555059022    1.7577088771
 H    1.5012106730   -0.3724787696    2.8575437570
 H   -0.1766644746    2.1800510645    2.6694601948
 H   -0.8094883737    0.5831490827    3.0841173461
 H    0.3900632021    1.3579282769    4.1226058104
 H    0.4022453876   -0.9362338082    0.9170651487