17

 N    0.0588531036    0.4718933142    0.9160200659
 C    0.1002545797    0.0074311768   -0.3672819375
 O    0.9535748693    0.3273998176   -1.1704194168
 C   -1.0530383235   -0.9400526377   -0.7123019472
 C   -1.0122082819   -2.2459276306    0.0876091170
 N   -1.2324173912   -2.1080172141    1.5665050760
 C   -2.3696596169   -3.0746043756    1.5678311226
 C   -2.2822190827   -3.1188941739    0.0334931791
 O   -2.9389166958   -3.5932776915   -0.8413466966
 H    0.8386962235    1.0208262229    1.2406507825
 H   -0.5534716071    0.0256091884    1.5851251247
 H   -2.0066122597   -0.4347537163   -0.5222007405
 H   -0.9870284779   -1.1673221043   -1.7776598347
 H   -0.1120851881   -2.8193688948   -0.1724349214
 H   -0.4411739940   -2.4359583261    2.1082953382
 H   -2.1630860909   -4.0466888419    2.0325501814
 H   -3.3005198265   -2.6768348531    1.9850315472