20

 C    0.4055302688    1.4042021033    0.1301790615
 C   -0.0229541000   -0.0712694259   -0.0078520303
 C   -1.5453193822   -0.1787084944   -0.1085501192
 C    0.7214507037   -0.7797660475   -1.1604740642
 O    0.9003006333    0.0816555903   -2.2653550435
 C    2.0446875590   -1.2653109031   -0.5178199651
 N    1.6411548476   -1.4888225154    0.8562691345
 C    0.5038801530   -0.8239381223    1.2311579850
 O    0.0201091107   -0.8138582493    2.3421795576
 H    1.4916513932    1.5118825085    0.2091840614
 H    0.0760670873    1.9764280764   -0.7397995832
 H   -0.0434272602    1.8299849177    1.0315152794
 H   -1.9134758101    0.3843910706   -0.9718253353
 H   -1.8655547830   -1.2203120857   -0.2156696273
 H   -2.0086639368    0.2195389462    0.7977486563
 H    0.1370023759   -1.6650978603   -1.4521806081
 H    1.2082148163   -0.4393469369   -3.0131578629
 H    2.4240026394   -2.1824275587   -0.9818342116
 H    2.8141590581   -0.4868186781   -0.6159311693
 H    2.2148396460   -1.9486280653    1.5457490142