16

 C    0.0194851307    1.5633758570   -0.0712573669
 C   -0.0140217195    0.0409479287    0.1488890833
 C   -1.3895216371   -0.5373627379    0.0261222371
 N   -2.0942632450   -0.8864537168    1.0685722650
 O   -3.2854124182   -1.3510508540    0.5846992198
 N   -3.3186144434   -1.2933031583   -0.7805712676
 C   -2.1690019560   -0.7966881545   -1.1503303803
 C   -1.8184281842   -0.5875418821   -2.5862286865
 H    1.0416917637    1.9397602343    0.0262797119
 H   -0.3438087492    1.8350984315   -1.0672206064
 H   -0.6060481874    2.0745634767    0.6657710202
 H    0.6469829840   -0.4504325489   -0.5749810001
 H    0.3681574005   -0.1983627762    1.1449529164
 H   -1.6792389576    0.4751280192   -2.8099869737
 H   -0.8853807592   -1.1008503273   -2.8409596886
 H   -2.6142276423   -0.9736644112   -3.2252589233