21

 C    0.0672835391    1.4550337061   -0.1457372860
 O    1.2513957273    0.6609920944   -0.0847777572
 C   -0.0175950100   -0.0123365409   -0.1197118914
 C   -0.3962973859   -0.7396601178    1.1267733778
 C   -1.6611912230   -1.5515843752    1.3327264570
 C   -2.4628203596   -2.0596654976    0.1405752061
 C   -1.4633953659   -2.8320544443   -0.7605076830
 C   -0.2455921339   -3.1789326568    0.1371951166
 C   -0.3123105121   -2.2386362775    1.3352277434
 H   -0.1656615860    2.0183539286    0.7576613989
 H   -0.0914589135    1.9946653077   -1.0790429084
 H   -0.2092833515   -0.5080972368   -1.0680333714
 H   -0.1038819454   -0.1701233046    2.0062442411
 H   -2.2029974000   -1.3772026263    2.2565569689
 H   -3.2398230591   -2.7360962272    0.5144554780
 H   -2.9791107068   -1.2638658152   -0.4074675338
 H   -1.9179349851   -3.7301825865   -1.1875359153
 H   -1.1554198377   -2.2181783463   -1.6108488566
 H   -0.3225750267   -4.2087596314    0.5035045245
 H    0.7003512552   -3.1106857185   -0.4108070098
 H    0.1431717505   -2.5762135641    2.2601530604