17

 O    0.0368090975    1.4812025446   -0.1513255136
 C    0.0675026012    0.0688315006   -0.0661783167
 C   -1.3458983165   -0.5221860737    0.0124872588
 C   -1.3401177540   -2.0533061953    0.0127275736
 O   -0.6619415783   -2.4820425530    1.1924217819
 C   -0.3078824460   -3.7930600778    1.2564889348
 N    0.3242752824   -4.2073946057    2.2614168485
 C   -2.7117427577   -2.5963597706   -0.0330115902
 N   -3.7837706141   -3.0245532194   -0.0770175587
 H   -0.1975555912    1.8287523596    0.7149913747
 H    0.5614001220   -0.2764485648   -0.9822357424
 H    0.6689915179   -0.2797299317    0.7827646952
 H   -1.8508063917   -0.1806466142    0.9229531027
 H   -1.9330813561   -0.1711671582   -0.8414028284
 H   -0.8076598012   -2.4208104949   -0.8766683287
 H   -0.6264341537   -4.3785737900    0.3848069294
 H    0.5203119396   -5.2020384958    2.1704981090