16

 C   -0.1462905413    1.5561141064    0.0224217450
 C    0.0674734743    0.0407435616   -0.0182785843
 C    0.8505286339   -0.4976180597   -1.2350792487
 C    1.9248231706   -1.3699205196   -0.6502758153
 C    1.9388793834   -1.3573127484    0.6942405168
 C    2.8399618586   -2.0541365094    1.5432408335
 N    3.5651615050   -2.6176801889    2.2474140475
 C    0.8545149384   -0.4563518523    1.2076098263
 O    0.6407698597   -0.1679479275    2.3560341038
 H    0.8061893891    2.0896987349   -0.0643064621
 H   -0.7954022550    1.8838093279   -0.7945327944
 H   -0.6061138274    1.8406312023    0.9719867712
 H   -0.9101826941   -0.4544257505    0.0359781725
 H    0.2255002175   -1.0617886799   -1.9369277549
 H    1.3046959879    0.3119908784   -1.8220795258
 H    2.6168629594   -1.9337596951   -1.2657779512