15

 C    0.1139604398    1.4365316958    0.0906197153
 N    0.1541654714   -0.0164875699    0.1159917136
 C    0.4078771672   -0.6515345225   -0.9437767367
 O    0.6510819720    0.0509724101   -2.1442445940
 C    0.9316468487   -0.5221355280   -3.3475380948
 O    1.1250317499    0.1453931102   -4.3246938052
 N    0.9729123802   -1.9024844625   -3.3417300544
 C    0.7499556891   -2.6697531426   -2.2143214940
 C    0.4737118182   -2.0944472144   -1.0369008887
 H    1.0857368447    1.8643142376   -0.1870788785
 H   -0.6200129359    1.8148694363   -0.6319589032
 H   -0.1538522774    1.8002570074    1.0848241038
 H    1.1813442582   -2.3248920894   -4.2315573202
 H    0.8150024932   -3.7406039031   -2.3579798974
 H    0.2946553207   -2.6666261252   -0.1396418255