16

 N   -0.0880610799    1.2593484565    0.2461637970
 C    0.0047459369    0.0225848798   -0.0156897507
 O    1.2121808019   -0.5447518835   -0.3085149918
 C    1.3333787021   -1.8880099718   -0.7850676897
 C    0.1710687105   -2.7710312177   -0.3943240325
 O   -0.0682719778   -2.7142224688    1.0433272471
 C   -1.3350469839   -2.1110153522    0.8002222022
 C   -1.2150825729   -2.1874343253   -0.6899822761
 C   -1.2095751390   -0.8333018962   -0.0102094247
 H    0.8328565490    1.6987969568    0.1852798338
 H    1.4345086908   -1.8780014965   -1.8797859208
 H    2.2651309756   -2.2705426682   -0.3572538320
 H    0.3242730627   -3.8017213424   -0.7273250265
 H   -2.1431526413   -2.3095445742    1.4929862368
 H   -1.9003474682   -2.4874046236   -1.4700927947
 H   -2.1285254364   -0.2632381228   -0.0756403675