17

 C   -0.1681546921    1.5621798264   -0.0046260549
 C    0.0659048936    0.0551420428    0.0316636031
 C    0.9081822781   -0.5285288208   -1.1141105497
 C    1.4943103264   -1.8001675090   -0.4664851374
 O    1.6289862385   -1.4869318961    0.9255176848
 C    0.8282819711   -0.4127750665    1.2569860302
 N    0.7664076681    0.0887830437    2.4087874678
 C    0.6212960449   -2.9754247479   -0.6384692758
 N   -0.0650308358   -3.8915293680   -0.7938193469
 H    0.7812879489    2.1034673276   -0.0641763377
 H   -0.7798540580    1.8411722346   -0.8674247880
 H   -0.6772471750    1.8817082489    0.9071224728
 H   -0.9044443566   -0.4604154561    0.0505198527
 H    0.3416444937   -0.7427426057   -2.0208739983
 H    1.7306173143    0.1480043160   -1.3672627067
 H    2.4880292329   -2.0521761306   -0.8459042055
 H    1.3635885070   -0.4135674893    3.0667930495