22

 C   -0.1709599808    1.5517549710   -0.2618812756
 C    0.2838907455    0.0879342844   -0.1874001886
 C    1.2751007041   -0.2218915287   -1.3173425307
 C    0.8917708649   -0.2432406641    1.2072880106
 C   -0.0476823245    0.1124965617    2.2771315813
 N   -0.8044165019    0.3291103725    3.1248448900
 C    1.2766071868   -1.7439861999    1.3871782999
 C    1.9817835967   -2.0194865595    2.7149235998
 O    0.1477822044   -2.5801599415    1.1995951532
 H    0.6794924434    2.2351102471   -0.1486004215
 H   -0.6320240911    1.7569740599   -1.2327311178
 H   -0.9014466980    1.7921801154    0.5151665198
 H   -0.5904296825   -0.5610864648   -0.3073355950
 H    2.2149522137    0.3278064349   -1.1838092755
 H    1.5087424945   -1.2866729192   -1.3911130801
 H    0.8501278437    0.0841097390   -2.2780206972
 H    1.7984106753    0.3616867111    1.3466075166
 H    1.9561384019   -2.0009011500    0.5701242670
 H    2.2305077220   -3.0815271615    2.7827626933
 H    2.9072362669   -1.4404520532    2.7996948545
 H    1.3414972031   -1.7587892297    3.5645958195
 H   -0.4495104981   -2.4450178148    1.9458786063