17

 O   -0.2423865752    1.3682675164    0.0944002130
 C    0.0113901897   -0.0225161967    0.0126446606
 C    0.7484704739   -0.3922903189   -1.2028249088
 C    1.4101345216   -0.6974914391   -2.1604710457
 C    0.7476947129   -0.5799681368    1.2540033822
 O    0.8155531147   -1.9805868409    1.1911576836
 C    2.0409904331    0.1718291507    1.6615495763
 O    1.3966632239    0.7214142472    2.8237569279
 C    0.2088044892   -0.0691476556    2.6023118861
 H    0.5934778752    1.8374773631   -0.0049250031
 H   -0.9766455807   -0.4976195673   -0.0075370933
 H    1.9672650812   -0.9586984028   -3.0269891251
 H    1.1837485859   -2.2221794387    0.3312384699
 H    2.8630488457   -0.5088651021    1.9153683270
 H    2.4167366889    0.9510207461    0.9841985244
 H   -0.6930677241    0.5489312642    2.5634402890
 H    0.0956918339   -0.8710319988    3.3408717458