25

 C    0.1641086338    1.3359042011    0.3729775634
 O   -0.0250893698   -0.0571371228    0.2973643856
 C   -1.3444822744   -0.5510865692    0.0160494428
 C   -2.3327903185   -0.1416163275    1.1203035658
 C   -1.8304379987   -0.0705789534   -1.3611639730
 C   -1.1908404593   -2.0783701167    0.0034889316
 C   -0.1066076184   -2.7292490045   -0.9029384691
 C    0.1729200324   -3.7501366267    0.2322558134
 C   -0.5379292470   -2.7901609642    1.2232854167
 H    1.2236043051    1.4913761942    0.5945599727
 H   -0.0671898811    1.8495776633   -0.5707559293
 H   -0.4252744670    1.8036162120    1.1741189063
 H   -2.5111959409    0.9375914251    1.1315666716
 H   -3.2995837906   -0.6294657193    0.9621997933
 H   -1.9547257665   -0.4393043059    2.1024372510
 H   -1.0964902877   -0.3167904140   -2.1337350386
 H   -2.7764170444   -0.5567242411   -1.6189506172
 H   -2.0037880029    1.0093302118   -1.3811032606
 H   -2.1729290814   -2.5158992460   -0.2081977482
 H   -0.4206187323   -3.1198968942   -1.8742865549
 H    0.7328671981   -2.0451650266   -1.0451691116
 H   -0.3886838636   -4.6785754471    0.0916755973
 H    1.2155278793   -4.0052027172    0.4364590838
 H    0.1722085383   -2.1243424789    1.7185568476
 H   -1.2010226223   -3.2300903922    1.9726133996