9

 O    0.0128941368   -0.0721026495    0.0028172823
 C    0.0302758209    1.1265287063    0.0090223844
 O   -1.1670245879    1.8225328394    0.0280145553
 N   -1.2443710786    3.2624716401    0.0362542539
 N   -0.2000837555    3.9169524900    0.0258549264
 C    1.0590958939    3.3136599628    0.0062509644
 C    1.2111659576    1.9816238583   -0.0024160231
 H    1.8845795581    4.0145271649   -0.0011619065
 H    2.1803114347    1.4985833479   -0.0176882770