21

 C   -0.0838920612    1.5076620107    0.0531658900
 C    0.0310409174   -0.0153529063   -0.0589103271
 C    0.9237888131   -0.4124509017   -1.2409536240
 N    1.1715732631   -1.8498694818   -1.2583198920
 C    0.2329024089   -2.6696290359   -2.0208348095
 C    1.6129949864   -2.4241378588   -2.5233096651
 N    0.5925978229   -0.6163279866    1.1510072993
 C   -0.0442920602   -0.6045381289    2.3497171394
 O   -1.0479421451    0.0277362260    2.6130933406
 H    0.8998110282    1.9566650367    0.2260070749
 H   -0.4979965093    1.9241860204   -0.8711427894
 H   -0.7393909857    1.7704606646    0.8833965465
 H   -0.9755032009   -0.4283071267   -0.2201753302
 H    0.4564953552   -0.0525604274   -2.1732934162
 H    1.8945784381    0.0901773629   -1.1455032511
 H   -0.0316825101   -3.6250792828   -1.5781734727
 H   -0.5821561578   -2.1620860747   -2.5339821476
 H    1.7208310672   -1.7536198670   -3.3740319181
 H    2.3721351380   -3.1976255312   -2.4533002213
 H    1.2629253657   -1.3551899018    0.9851925658
 H    0.4751768062   -1.2411735796    3.0951254178