16

 O   -0.0235489875    1.2474146922   -0.3259326386
 C   -0.0675787993   -0.1262604207   -0.0796371759
 C   -0.4706371199   -0.6329651968    1.2980109514
 C   -1.4248693238   -0.7252582645    0.1512087864
 C   -2.7097798083    0.0901393024   -0.0048190058
 O   -3.5487282770   -0.7539498872   -0.7948314487
 C   -2.7159122611   -1.7532727765   -1.3314348406
 O   -1.7123621856   -1.9986961063   -0.3700137566
 H    0.7208300327    1.6186078241    0.1595014790
 H    0.6436701304   -0.7341325258   -0.6379859230
 H   -0.0186780782   -1.5532107339    1.6518580358
 H   -0.6836283508    0.1082432072    2.0621543792
 H   -3.2153767997    0.2779450283    0.9476009491
 H   -2.5150556525    1.0458600947   -0.5043368003
 H   -3.2953224724   -2.6673465968   -1.4850741958
 H   -2.2627296869   -1.4180012002   -2.2822095056