21

 C   -0.2062696750    0.9883597908   -0.4863605886
 C    1.2334932460    0.7042740272   -0.1267145879
 C    0.1624855592   -0.3094990285    0.1861346086
 C   -0.2477879565   -0.5685417316    1.6239553279
 C   -1.6884422425   -1.1560671303    1.7330122621
 C   -1.4906427961   -2.6508134616    1.8721462798
 O   -0.5883255689   -3.2075666649    0.9026333013
 C   -0.0923462838   -2.9267190015    2.2214339039
 C    0.6677701765   -1.6209842352    2.3215817148
 H   -0.7325106702    1.7349094112    0.1006116623
 H   -0.4907088052    0.9688931381   -1.5326592997
 H    1.9332431138    0.4906133553   -0.9271674727
 H    1.6641361670    1.2620164293    0.6992832428
 H    0.1434053727   -1.1966400486   -0.4382385724
 H   -0.1942061010    0.3841048910    2.1619569743
 H   -2.2031434673   -0.7863681221    2.6285458640
 H   -2.3027766164   -0.8877044576    0.8680712852
 H   -2.3126182130   -3.3001008810    2.1642240959
 H    0.2132259116   -3.7984887814    2.7951675153
 H    1.6575750642   -1.6691441068    1.8573455895
 H    0.8139958250   -1.3816953717    3.3822107037