20

 C    0.2508936806    1.6209497872   -0.0060016588
 C   -0.0492337052    0.1107153173   -0.0335357174
 C    0.4788125473   -0.5247644422   -1.3255379262
 C    0.2161964117   -2.0371947119   -1.4319497412
 C    1.2756939531   -2.9059074527   -0.7833366491
 O    1.8164162858   -3.8303930925   -1.3592336110
 N    1.6204694522   -2.6190956367    0.5237433041
 C    1.1539986335   -1.6579171219    1.4256932028
 C    0.4507313162   -0.5378381595    1.2306870362
 H    1.3308036770    1.8037850020   -0.0004525413
 H   -0.1749053117    2.1205517716   -0.8822621388
 H   -0.1717233798    2.0913476466    0.8874907756
 H   -1.1467896951    0.0047842501   -0.0466031712
 H   -0.0033868667   -0.0252085071   -2.1725810472
 H    1.5532669016   -0.3262652455   -1.4266796362
 H   -0.7561466818   -2.2761781779   -0.9806623177
 H    0.1784318379   -2.3598119685   -2.4737626442
 H    2.2948412850   -3.2796394000    0.8829888095
 H    1.4316947614   -1.9131382044    2.4440656189
 H    0.2021303870    0.0003060259    2.1423099031