19

 C    0.1303015262    1.4595295002   -0.0642464381
 C   -0.0937271265   -0.0575680709    0.0370699533
 C   -1.5931556551   -0.3948448710    0.0342404484
 O    0.5265491239   -0.6942685386   -1.0970928275
 C    1.5374921047   -1.6123587685   -0.6892137773
 C    1.5437670431   -1.5382369300    0.8153472725
 C    2.4345377230   -2.3206608609    1.6725782014
 O    3.2554707610   -3.1060816158    1.2520546155
 C    0.6219626562   -0.6599841387    1.2189705848
 H    1.1987544823    1.6901699269   -0.0709219108
 H   -0.3093830774    1.8333858666   -0.9934000752
 H   -0.3365414875    1.9849496057    0.7751204308
 H   -2.0473565786   -0.0365460252   -0.8940599501
 H   -1.7435981706   -1.4756956193    0.0971708567
 H   -2.1067481552    0.0802199745    0.8763107131
 H    1.3057144585   -2.6240175904   -1.0507233777
 H    2.5085756791   -1.3300288338   -1.1194990987
 H    2.3072762037   -2.1444029019    2.7634100776
 H    0.3954129491   -0.3948749990    2.2454348614