23

 C    1.2387650276    0.6371079160    1.0374944609
 C    0.1299184539    0.3693618252    0.0145911059
 C    0.6528195787   -0.3216160322   -1.2431204516
 C    1.0990351917   -1.7937161771   -1.1576994486
 C   -0.0645140437   -2.7030202950   -0.8808999426
 C    0.1288584474   -2.1777247956   -2.2779154170
 C   -0.3341572439   -0.7215561278   -2.4093066615
 C   -1.8190396817   -0.4243954738   -2.3005823810
 O   -1.9899506418    0.9826991049   -2.4395014133
 H    1.7192693001   -0.2953233555    1.3538530930
 H    2.0171278223    1.2838830752    0.6166618261
 H    0.8466680209    1.1290844997    1.9332145490
 H   -0.6516969102   -0.2401588297    0.4847394518
 H   -0.3527695877    1.3083895188   -0.2785508780
 H    1.4596224011    0.2886751729   -1.6626630464
 H    2.1196922361   -2.1284151422   -1.0155965947
 H    0.1930871358   -3.7495139920   -0.7506733496
 H   -0.8979920841   -2.3819002944   -0.2626289610
 H    0.2948413398   -2.8490791467   -3.1123486606
 H    0.0173982152   -0.2834949643   -3.3481413916
 H   -2.3536287653   -0.9699198528   -3.0961440532
 H   -2.2225685306   -0.7759655265   -1.3399192732
 H   -2.9201309813    1.1874195429   -2.3072300828