17

 C   -0.1194089961    1.5261566198    0.0458250994
 C   -0.0497875396    0.0374836210   -0.0490820633
 C   -0.1789352827   -0.7623639652   -1.1204530872
 C    0.0655534988   -2.2321127584   -0.8267522040
 O    1.3390276893   -2.6166150420   -1.3079471423
 C    0.0251128271   -2.2647894042    0.7219690857
 O    0.9656652741   -3.1545148774    1.2735862409
 C    0.3091218987   -0.8127297705    1.1094378497
 O    0.8140157461   -0.4859065488    2.1618117186
 H    0.7950714831    1.9159994173    0.5049893360
 H   -0.2489404749    1.9890045255   -0.9351138845
 H   -0.9486918624    1.8389732230    0.6904404361
 H   -0.3806250006   -0.4181953035   -2.1297496716
 H   -0.7115956082   -2.8682431363   -1.2734626339
 H    1.7407354559   -3.1183544253   -0.5819341017
 H   -0.9922592644   -2.5160518497    1.0587800746
 H    1.3841568659   -2.6769365653    2.0061569473