17

 C   -0.0808693132    1.4507318148    0.0715083579
 C    1.2915172152    0.7670006807   -0.0651267991
 C    2.0440171912    0.4093288796    1.1724337227
 C    1.4094046781   -0.5129010879    1.9060667514
 C    0.0737165488   -0.8773344122    1.2954874556
 O   -0.0641554999   -2.2133769061    0.7835174909
 C   -0.0586486871   -2.1201888812   -0.6286221460
 O   -0.5332872031   -0.8296436604   -0.9743535942
 C    0.0022957405   -0.0248127563    0.0287802590
 H   -0.3427134858    1.9395303007    1.0053717131
 H   -0.4445686321    1.9450133775   -0.8235788706
 H    1.8120869882    0.9054065414   -1.0059661429
 H    2.9968070546    0.8597596554    1.4305302347
 H    1.7461206022   -0.9141273820    2.8541925888
 H   -0.7547330555   -0.7127614569    1.9948485622
 H    0.9617077295   -2.2640691119   -1.0225037606
 H   -0.7395208716   -2.8681040352   -1.0434682529