19

 O    0.0572680960   -0.0521327676    0.3966542888
 C    0.0131875098    1.1239235598    0.1229322331
 C   -1.3232854080    1.8382417786   -0.0590094957
 C   -1.3672474147    3.0462208292   -0.9998673240
 O   -1.2485950730    2.7561069941   -2.3769083764
 C   -0.1152748052    2.0210701676   -2.8084036649
 C    1.2629418410    2.5440377145   -2.3588552099
 O    1.8735165954    1.7960927667   -1.3196223272
 C    1.3260031949    1.9252860070   -0.0194195918
 H   -2.0725421421    1.0892509838   -0.3316735151
 H   -1.5958615809    2.2071905467    0.9416488288
 H   -2.3425398171    3.5325135363   -0.9022108021
 H   -0.6162710263    3.7882299812   -0.6888859302
 H   -0.1850818367    0.9613743773   -2.5181981141
 H   -0.1760848465    2.0606947048   -3.9001815860
 H    1.9604269828    2.4530322067   -3.1965759586
 H    1.1968123664    3.6122268414   -2.0993879559
 H    1.1984313922    2.9836064636    0.2529960002
 H    2.0513671619    1.4676102980    0.6572165412