20

 C   -0.2662988385    1.5686075427   -0.0009565708
 C    0.0224365989    0.0626250836    0.0057494561
 C    0.7633508446   -0.4887885175   -1.2601468612
 N    2.1117438521   -0.9291613327   -0.8369102645
 C    2.8822658394    0.2640039900   -0.3163788816
 C    2.4316411822   -0.0825228874    1.0916924538
 O    3.0607580594    0.2584959864    2.2718554422
 C    0.9508862845   -0.4194789845    1.1181027653
 C    1.9363461870   -1.4179956171    0.5670889316
 H    0.6497825566    2.1614471141   -0.0797544408
 H   -0.9150877883    1.8396735737   -0.8409462668
 H   -0.7750377396    1.8729402898    0.9200378877
 H   -0.9367150693   -0.4592150496    0.1151273544
 H    0.2337812076   -1.3578838341   -1.6635872604
 H    0.8499961442    0.2501673078   -2.0623995400
 H    3.9575525642    0.1031945474   -0.4621318958
 H    2.6076087975    1.2310985037   -0.7512865459
 H    3.9716185820   -0.0552516485    2.2298437334
 H    0.5671481028   -0.5784413969    2.1204366089
 H    2.0827509727   -2.4507458608    0.8563813645