23

 C   -0.4464453620    1.2977068265   -0.5055698016
 C    0.2933967003   -0.0243875827   -0.3785057566
 C    1.8345076701   -0.0582914643   -0.5770876133
 C    1.9199185028   -1.1096590541    0.5594540082
 C    0.5017963917   -0.6717154365    1.0201175211
 C    0.4450530725    0.1735815924    2.3251731897
 C   -0.0427635314   -1.1029403700    3.0594199115
 O   -0.9757673860   -1.0054825313    4.1052543249
 C   -0.4581312931   -1.6870658113    1.6840484449
 H    0.0057483892    2.0707040304    0.1253444123
 H   -0.4249632830    1.6600057621   -1.5394293267
 H   -1.4990855631    1.2016384351   -0.2139893950
 H   -0.1723884762   -0.7695599628   -1.0365158822
 H    2.2166160376   -0.3380862474   -1.5619152930
 H    2.2930386145    0.8919861526   -0.2846086022
 H    1.9182542082   -2.1327712619    0.1694521660
 H    2.7368599171   -1.0145353182    1.2803982609
 H    1.3582122858    0.6616348414    2.6766800846
 H   -0.3591199061    0.9183762878    2.2859992862
 H    0.8024927841   -1.6584975460    3.4757991320
 H   -1.7406853105   -0.5224258462    3.7748708945
 H   -1.5057123500   -1.4436444295    1.4628929801
 H   -0.2982439525   -2.7526743261    1.4971039637