17

 O    0.0203169899    1.3711005824    0.0203613072
 C   -0.0240152001   -0.0116148150    0.0697449640
 C    0.6987798387   -0.7434292223    1.2317797775
 C    0.4347448568   -2.1673455087    0.7369072322
 C   -0.8706531771   -2.1518757683   -0.0024162116
 C   -1.4052242086   -0.7184828616    0.0404587365
 C    0.4444861460   -2.1401392693   -0.8019808300
 C    0.6481145571   -0.7075150367   -1.1323589357
 O    1.1765779226   -0.1328477879   -2.0509882494
 H    0.4880010191    1.5911001180   -0.8012959355
 H    1.7616101012   -0.4864881174    1.2747950562
 H    0.2429797243   -0.5388766305    2.2055402479
 H    0.7893754629   -3.0466520228    1.2581152500
 H   -1.5156961142   -3.0193398430   -0.0474296121
 H   -2.0020043088   -0.5123081853    0.9344109269
 H   -1.9841378113   -0.4420004284   -0.8460465401
 H    0.7799120217   -2.9662781132   -1.4112117138