17

 C    0.0929163272    1.5026467872   -0.0250732705
 C   -0.0009872877   -0.0232986479    0.0085301196
 O    0.7324019689   -0.5208465939   -1.1240143884
 C    1.3493633036   -1.7638486193   -0.8045243705
 C    1.5418035141   -1.7397995776    0.6949543096
 O    2.1190776526   -0.5109491555    1.1608234125
 C    0.7022738248   -0.6623611096    1.2119262333
 C   -1.3956186280   -0.4904447246   -0.0206907063
 C   -2.5301397998   -0.8877211859   -0.0290392935
 H    1.1410405625    1.7931757766    0.0721397899
 H   -0.2986695537    1.8770878050   -0.9733443309
 H   -0.4873826702    1.9414577949    0.7908641292
 H    0.7133885886   -2.6192325229   -1.0807280497
 H    2.2850953633   -1.8210616072   -1.3691170703
 H    1.7919364110   -2.6372938298    1.2527476665
 H    0.2329838246   -0.6531885738    2.1907167141
 H   -3.5352561420   -1.2309270258   -0.0490798347