25

 C   -0.0444209558    1.6798808589   -0.6053184648
 C    0.1151764820    0.2135043899   -0.1831103642
 C   -1.2196507393   -0.5098274733   -0.1552994339
 C   -1.8590164455   -1.2375218027   -1.3062786113
 C   -0.8436385963   -2.0949807532   -2.0766842144
 C   -0.5867476676   -2.9462818773   -0.7797890960
 C   -1.2669044014   -4.3153240333   -0.9012233572
 C    0.8519291218   -3.1327138685   -0.2948294471
 C   -1.5128589044   -1.9820068153   -0.0057201421
 H    0.9202778296    2.1966208401   -0.6220132120
 H   -0.4843132313    1.7543523302   -1.6055274991
 H   -0.7008732872    2.2217135102    0.0847980774
 H    0.8124738457   -0.2763817434   -0.8677538084
 H    0.5778627838    0.1663172899    0.8113224571
 H   -1.9657583771    0.0638411011    0.3974019240
 H   -2.8361164094   -0.9618063043   -1.6856280158
 H   -1.2914728882   -2.6859183826   -2.8791988955
 H    0.0186585940   -1.5618342269   -2.4907324857
 H   -0.7355258065   -4.9538427416   -1.6162269634
 H   -1.2794426530   -4.8333220453    0.0651998926
 H   -2.3035291672   -4.2156307365   -1.2394527298
 H    1.3911097632   -2.1889844867   -0.1963568327
 H    0.8662730213   -3.6253182484    0.6846393833
 H    1.4149562714   -3.7685187264   -0.9887872248
 H   -2.1919978625   -2.3230156744    0.7703418637