21

 C    0.5058850331    1.4779335221    0.1342309701
 C    0.0554965579    0.0428311141   -0.0396787676
 C    0.4804149171   -0.7293230739   -1.3085447320
 C    1.0743424080   -1.7522094044   -0.3179179101
 C    2.5505287348   -2.0986322066   -0.4179718085
 C    3.0463491131   -2.8373825754    0.8380536436
 C    4.5454249564   -3.0116846933    0.8363483465
 O    5.1237029818   -4.0629338619    0.9370156747
 O    0.7934142825   -0.8806159175    0.8036119792
 H    1.5720211698    1.5820799904   -0.0900477836
 H   -0.0582681543    2.1385083392   -0.5334143318
 H    0.3374990996    1.8094588605    1.1637668092
 H   -1.0210855625   -0.0421065729    0.1660897136
 H   -0.3190641060   -1.0839290731   -1.9601719401
 H    1.2327663440   -0.2092761833   -1.9077343286
 H    0.4796241566   -2.6748089358   -0.2417029486
 H    2.7141050608   -2.7142510781   -1.3116952648
 H    3.1228946058   -1.1719832002   -0.5520385477
 H    2.7776583858   -2.2278433101    1.7119859246
 H    2.5766291042   -3.8196645428    0.9433196209
 H    5.1130485315   -2.0564452371    0.7256362511