19

 C   -0.0394969454    0.7893739134    0.9581899777
 O   -0.5935060705    0.0100758854   -0.0862214584
 C    0.3119994845   -0.4221280654   -1.0731760695
 C    1.1243736552   -1.6838728544   -0.7048415978
 C    2.2688309053   -1.4437235412    0.1652435939
 C    3.2291009927   -1.2447343096    0.8649050335
 C    4.3913984028   -1.0139622397    1.7114913779
 C   -0.5332157846   -0.6658236859   -2.3238358862
 O   -0.2176311490   -1.3918449003   -3.2289055867
 H    0.6402037646    0.2079396143    1.5907258855
 H    0.5097899588    1.6558004869    0.5597971516
 H   -0.8779764044    1.1477368690    1.5603272992
 H    1.0160978241    0.3900229670   -1.3323243284
 H    0.4319945378   -2.3999741281   -0.2452005978
 H    1.4543051028   -2.1304819637   -1.6505945070
 H    4.4046035738   -1.7011950129    2.5646765472
 H    5.3245012064   -1.1588136359    1.1558718916
 H    4.3995990976    0.0067369800    2.1100877795
 H   -1.4806289424   -0.0853732790   -2.3236799158