21

 C    0.0000913575    1.6199145274   -0.1159603084
 C    0.0488326605    0.0932798627   -0.1011270609
 N   -1.2973783140   -0.4713220370    0.0115764595
 C   -1.8625321755   -0.5473805395    1.3928506201
 C   -2.7264731147   -1.7892349260    1.0234964230
 N   -2.2760598788   -2.6495059455    2.1638184949
 C   -1.0648137029   -1.8335881085    1.8276988036
 C   -1.3652274833   -1.9454602657    0.2803395307
 C   -0.9438230654   -3.0103936790   -0.6840147454
 H    1.0004493645    2.0401918421   -0.2582881089
 H   -0.6467192286    1.9726581166   -0.9242082726
 H   -0.3949980256    2.0135442968    0.8267512618
 H    0.4780886395   -0.2672731680   -1.0440567982
 H    0.7235599050   -0.2491025001    0.7048648124
 H   -2.1404922643    0.3267882378    1.9853915619
 H   -3.7280175683   -1.8139840816    0.5937245576
 H   -2.6909568667   -2.3187552832    3.0390646322
 H   -0.1243815322   -1.9367533121    2.3705251424
 H   -1.1715923584   -3.9939967455   -0.2625598391
 H   -1.4758193410   -2.9033265983   -1.6347137611
 H    0.1313344129   -2.9648486834   -0.8867951756