19

 C   -0.0966084889    1.6593595054    0.0668557386
 C    0.0597605198    0.1459320588    0.0772512283
 C    1.1534003518   -0.5596516402   -0.7997147699
 C    2.0977168164    0.2849211711   -1.5224390050
 N    2.8376416790    0.9763492100   -2.0809806235
 N    1.7172015281   -1.3005159499    0.3907641500
 C    2.1613447815   -0.2536510824    1.3407080003
 C    0.7172509243   -0.5514754378    1.2760711599
 C   -0.0437032729   -1.2274484345    2.3773065783
 H    0.8510259997    2.1720337550    0.2507829755
 H   -0.4766925350    2.0053404818   -0.8996130515
 H   -0.8083640109    1.9726953844    0.8378628596
 H   -0.9041978989   -0.3239264393   -0.1393412078
 H    0.7285136902   -1.2837120002   -1.4979911560
 H    2.7138812873   -0.6728361838    2.1756352172
 H    2.5758610744    0.6724575340    0.9513002476
 H   -0.4771886408   -0.4869626457    3.0596634008
 H   -0.8608427050   -1.8374874649    1.9775975646
 H    0.6134616697   -1.8788671116    2.9601603728