13

 C   -0.0164204845    1.3735399177    0.1692670555
 N    0.2631310829   -0.0522183577    0.1024602209
 C    0.6380323433   -0.5695114259   -0.9612973537
 O    0.8591499187    0.0038616516   -2.2022840237
 N    1.2770828526   -0.9905232668   -3.0970714618
 C    1.2905505223   -2.0664007487   -2.3971059384
 O    0.9224680793   -1.9143275485   -1.1032220524
 C    1.6645949917   -3.4282395942   -2.8682196225
 O    2.0044727720   -3.6660842903   -3.9948611336
 H    0.6246266516    1.8245388704    0.9334496134
 H    0.1341211801    1.9074133659   -0.7756200207
 H   -1.0525620855    1.5163434284    0.4922318487
 H    1.5964352056   -4.1956759218   -2.0728415617