13

 O    0.0773649546   -0.1579048882    0.1495160027
 C    0.0463720497    1.0002546609   -0.1587134503
 C    1.2757803142    1.9196090250   -0.0891563596
 C    1.3135598426    2.8871203504   -1.1676897857
 C    1.3095833954    3.6748410441   -2.0900140551
 C    1.3095250140    4.5558865173   -3.1143946005
 C    1.3108333101    5.3509805684   -4.0375121195
 C    1.3105315564    6.2330753012   -5.0631407853
 C    1.3104858174    7.0219391701   -5.9800956361
 H   -0.8838246461    1.5009520172   -0.5009490305
 H    1.2242727339    2.4389076454    0.8808401943
 H    2.1717346436    1.2899194230   -0.0653371885
 H    1.3103018240    7.7141346152   -6.7854575857