16

 O   -0.0341726666   -0.0198345315    0.1312610757
 C    0.0285049528    1.1738105186   -0.0510438696
 C    1.3121632472    1.9288115884   -0.0419398733
 C    2.6254281867    1.2018346619    0.2024321919
 O    3.5732167378    2.2899816386    0.1258335205
 C    2.7487274672    3.3930378340   -0.1290147153
 C    1.5974745709    3.0392824419   -1.1227422790
 N    0.6280105711    3.9562189091   -0.4278378497
 C    1.4180614614    3.3227963672    0.6848728598
 H   -0.8738423668    1.7888507650   -0.2356521755
 H    2.6761855881    0.7263299638    1.1869845158
 H    2.8498345934    0.4519195676   -0.5626110324
 H    3.3152271935    4.3205873423   -0.2182776429
 H    1.6196826194    2.9088326083   -2.2051470821
 H    0.9264716155    4.9286011365   -0.5507306357
 H    1.2282143484    3.5274627984    1.7389980418