17

 C   -0.0040492148    0.9152024655   -0.5054699649
 O   -0.4648598425    0.0097576439    0.4871090710
 C    0.5163563129   -0.4077772917    1.4015673515
 C   -0.2063470895   -1.0506585294    2.5971485048
 O   -0.4327938129   -2.4339900165    2.2355452439
 C    0.3589714281   -2.7671181411    1.1990055920
 O    0.2936415974   -3.8000994826    0.5930417249
 C    1.3250347858   -1.6238122957    0.9049900919
 O    1.7317006493   -1.6166799803   -0.4304545869
 H    0.7458713281    0.4565647173   -1.1554370253
 H   -0.8784166810    1.1996550145   -1.0949962631
 H    0.4204794121    1.8198911235   -0.0438641744
 H    1.1520855997    0.4320427108    1.7132619270
 H    0.3933183479   -1.0167746843    3.5121272018
 H   -1.1780817546   -0.5873739364    2.7685118011
 H    2.1890229154   -1.7524134905    1.5826454876
 H    1.4863975786   -2.4839890970   -0.7862763730