20

 C   -0.0050133664    1.5525308843   -0.0050970667
 C    0.0538091081    0.0232583294    0.0117905842
 C    0.7304155863   -0.5351478455   -1.2488452194
 O    0.7601824327   -1.9543468315   -1.2557447046
 C    1.4910873803   -2.4750691694   -0.1596941143
 C    0.8660340680   -2.0572849786    1.1739074692
 C    0.7614925372   -0.5266815909    1.2620040286
 O    2.0538747029    0.0781348584    1.3187756366
 H    1.0001982330    1.9814987527   -0.0058925464
 H   -0.5371868045    1.9146278763   -0.8910401160
 H   -0.5288218699    1.9334768248    0.8780454261
 H   -0.9688505537   -0.3757454804    0.0331254132
 H    0.1755093114   -0.2384296848   -2.1441120381
 H    1.7519396690   -0.1309501568   -1.3292109447
 H    1.4848498157   -3.5629495621   -0.2738920960
 H    2.5368970800   -2.1313523322   -0.2011639565
 H   -0.1365793699   -2.4929081212    1.2599155910
 H    1.4617615066   -2.4464579748    2.0106277229
 H    0.1798745873   -0.2450141168    2.1545466250
 H    2.5122878160   -0.2697720410    2.0897338757