15

 O   -0.0291897471    1.3456347219    0.0817755852
 C    0.1142201916   -0.0410632533   -0.0485668755
 C    1.0160692066   -0.3627181604   -1.2345558346
 O    1.3076664131    0.4959117627   -2.0291945595
 C    0.5857683070   -0.6370139993    1.2837438094
 C    2.0517826803   -0.3234184509    1.5774680085
 O    2.8569968813   -0.1378211032    0.7028245408
 C   -0.3094166154   -0.2182480931    2.4488132392
 O    0.0150698861   -0.3619768665    3.5984185767
 H    0.3939873777    1.7216169045   -0.7090219555
 H   -0.8582033369   -0.5136332202   -0.2943358419
 H    1.3105834372   -1.4211507071   -1.3689495462
 H    0.5225781633   -1.7372222324    1.2444065745
 H    2.3216293541   -0.3004236386    2.6495770685
 H   -1.2840881488    0.2278919461    2.1654446604