18

 C    0.1571974894    1.4155441785   -0.0545116253
 N   -0.0781969303    0.0161781695    0.2608203260
 C    0.6782351402   -0.5885137885    1.0587574589
 C    0.5321309214   -2.0297559880    1.4997026729
 C    1.9209807086   -2.3726152256    2.0559659190
 C    2.4050202540   -0.9802239944    2.5334640761
 O    1.7921336146   -0.0406744479    1.6669667711
 C    2.0007225049   -0.7493917754    3.9839950847
 O    1.0807808224   -0.0628817541    4.3357255760
 H    0.2097971703    1.5299348104   -1.1429235365
 H   -0.7025428700    2.0051796651    0.2840101542
 H    1.0651884886    1.8358072130    0.3913491016
 H   -0.2329390610   -2.0868391884    2.2814138309
 H    0.2125916099   -2.6625460428    0.6720980060
 H    1.9064257147   -3.1147042810    2.8578233826
 H    2.5844061195   -2.7385160338    1.2680262071
 H    3.4927813990   -0.8686369213    2.4554664979
 H    2.6282143236   -1.3151505051    4.7126402270