16

 N    0.3292750184    1.0253253557   -0.8029544899
 C   -0.2399526214    0.4108529931    0.3863281513
 C   -1.5392408352   -0.3645518141    0.2244214718
 N   -1.9405495157   -1.0791486381    1.2783601511
 C   -3.0924345518   -1.7441954693    1.1326526019
 C   -3.8475912792   -1.7174048104   -0.0270141637
 C   -3.3267864475   -0.9359532347   -1.0589875394
 O   -3.9876471814   -0.8453973742   -2.2229509839
 N   -2.1851653254   -0.2635759923   -0.9428797953
 H    0.5366203252    0.3006591585   -1.4850966397
 H   -0.3812158526    1.6001878536   -1.2476962059
 H    0.4939255661   -0.2648459885    0.8386439735
 H   -0.4178860357    1.1888143678    1.1406393372
 H   -3.4231895478   -2.3281638205    1.9887671012
 H   -4.7767466565   -2.2593805401   -0.1396957741
 H   -3.4608237094   -0.2633974266   -2.7895640760