16

 C   -0.0500809499    1.5271910847    0.0273004330
 C   -0.0082047595    0.0184824544    0.0052396382
 C    0.0202892915   -0.6844279106   -1.2052974183
 C    0.0780493152   -2.0708477511   -1.2430691244
 C    0.1076490565   -2.7965259839   -0.0507299777
 O    0.1619564457   -4.1575823127   -0.1385925749
 C    0.0772381603   -2.1177567182    1.1660892641
 C    0.0191602048   -0.7258804448    1.1846330128
 H    0.9206139704    1.9627315257   -0.2403896167
 H   -0.7835514281    1.9196185091   -0.6850657192
 H   -0.3138551376    1.9033767310    1.0197607507
 H   -0.0048597307   -0.1333292632   -2.1413014489
 H    0.0974687955   -2.6087167332   -2.1841466521
 H    0.1760251039   -4.5273851349    0.7500873446
 H    0.0952177017   -2.6750099143    2.0994908407
 H   -0.0063107697   -0.2125726380    2.1415279381