11

 O   -0.0072137493    1.2822769954    0.0076017011
 C   -0.0547320189   -0.0445259901    0.0008596008
 N   -1.2004495415   -0.6320135886    0.0039642642
 C   -1.1749026619   -2.0165095558   -0.0034753937
 N   -2.1483929402   -2.8303939608   -0.0024956912
 N    0.1269862413   -2.5729957082   -0.0134065639
 N    1.2597403707   -1.9066369075   -0.0160330524
 N    1.2193646010   -0.6317479875   -0.0091201509
 H    0.9285989608    1.5322176297    0.0038615536
 H   -3.0237657916   -2.3094136287    0.0049815697
 H    0.2170894396   -3.5803735580   -0.0191864472