17

 C    0.0724743213    1.5412490887    0.0608133238
 C   -0.0277686467    0.0468785569    0.0166934187
 C   -1.2157600693   -0.6379769883    0.0532119796
 N   -2.4518437287    0.0583070333    0.1585661784
 C   -1.1582928198   -2.0627617312    0.0368115724
 C    0.0161296901   -2.7493078862   -0.0225068714
 C    1.2886508562   -2.0620585734   -0.0985621437
 O    2.4016785730   -2.5632780683   -0.1732808101
 N    1.1401629441   -0.6647353230   -0.0773351593
 H    0.9697822956    1.8600028730    0.6013970686
 H    0.1217838648    1.9797468692   -0.9444130934
 H   -0.8051553957    1.9530548412    0.5643252564
 H   -2.6492023182    0.6356146612   -0.6510859416
 H   -3.2258299460   -0.5828886404    0.2783091153
 H   -2.0967229689   -2.6121840604    0.0773366081
 H    0.0481748890   -3.8314825005   -0.0263493361
 H    2.0180576091   -0.1646358218   -0.1186306857