21

 C   -0.2200843116    1.6503429045   -0.0213653630
 C   -0.0100245139    0.1422827515    0.0099399800
 C    1.1781909235   -0.3653150120   -0.8884324784
 C    2.0240270177   -0.5461298745    0.3755361300
 C    3.2041483812   -1.4437113258    0.5853440014
 C    3.3752912336    0.0590637513    0.6231182057
 C    0.7881015572   -0.3749646277    1.2637495136
 C   -1.2918390090   -0.6156024868   -0.2257782875
 O   -2.3730258871   -0.1208956418   -0.4194715054
 H    0.7242501577    2.1748829874    0.1521184954
 H   -0.6206865925    1.9669006274   -0.9887564318
 H   -0.9351742142    1.9591189483    0.7466452614
 H    0.9536644039   -1.3117185184   -1.3934667564
 H    1.5303139644    0.3529493972   -1.6339691429
 H    3.2719771969   -1.9893414573    1.5214587030
 H    3.5969574104   -1.9812975773   -0.2721669227
 H    3.8825076436    0.5367522171   -0.2094657487
 H    3.5573592351    0.5286306396    1.5848933379
 H    0.8550310696    0.3362517358    2.0916455169
 H    0.4021012316   -1.3253599227    1.6496296270
 H   -1.1672134783   -1.7255902659   -0.2082234657