25

 C   -0.7047882408    1.0406400041    1.1188258534
 C   -0.6798213218   -0.4603175192    0.8190480665
 C   -1.1344189133   -0.7781380359   -0.6152155537
 C   -1.0407346446   -2.2550443973   -0.9966277734
 C   -2.2593363238   -3.1381171095   -0.7764385003
 C   -2.7381695399   -3.2564685119    0.6770310406
 C   -3.8769625546   -4.2685976031    0.8329493845
 C   -0.0796334685   -2.6638930758   -2.0358904648
 O    0.2136566636   -2.8780451034   -0.6547117151
 H   -0.3656014400    1.2471620147    2.1387140045
 H   -0.0524184949    1.5935661454    0.4334035149
 H   -1.7151545748    1.4527590447    1.0150695209
 H    0.3328880884   -0.8549235693    0.9512686955
 H   -1.3101492089   -0.9871146704    1.5432059457
 H   -2.1670897111   -0.4380957284   -0.7658710252
 H   -0.5167665289   -0.1906925579   -1.3049771365
 H   -3.0804936015   -2.7603453026   -1.4018138411
 H   -2.0184078888   -4.1404624827   -1.1501318482
 H   -1.8914108693   -3.5513491820    1.3079387313
 H   -3.0738292839   -2.2783456790    1.0406959419
 H   -4.2087300755   -4.3381663857    1.8735004090
 H   -4.7444586206   -3.9873576735    0.2250487514
 H   -3.5626201597   -5.2690759987    0.5155823427
 H   -0.2594842942   -3.5659280328   -2.6208492867
 H    0.5312873076   -1.9100751599   -2.5320692476