14

 N   -0.0778160511    1.2534110692   -0.0667097653
 C   -0.0085475548   -0.0068857605    0.0119944649
 C   -1.2405058111   -0.9432965107    0.0180090295
 C   -0.5890481304   -2.2918992045   -0.0373124297
 C    0.7694905684   -2.1349244921   -0.0041773242
 N    1.2768328393   -3.3738196308   -0.0058652979
 N    0.2355534874   -4.2893817358   -0.0571559957
 N   -0.8782027532   -3.6129596060   -0.0632591067
 N    1.1656999949   -0.8123376359    0.1115527116
 H    0.8417705185    1.6970227751   -0.0521400127
 H   -1.8249250360   -0.7710716207    0.9281364782
 H   -1.8871205513   -0.7020492927   -0.8302728852
 H    2.2245383253   -3.7112244245   -0.0000682459
 H    2.0545025740   -0.4560780602   -0.2033417209