19

 O   -0.1001596818    1.3684389329    0.0253493691
 C    0.0545583379   -0.0260498876    0.0075251735
 C    0.7839042013   -0.6840883893   -1.1958839249
 C    0.3739647830   -2.1142705655   -0.8231128352
 C   -1.1672461366   -2.0577796760   -0.7710162812
 C   -1.1665422113   -2.0769671980    0.7352536395
 C   -1.3214447957   -0.7588939264   -0.0011337317
 C    0.3747172633   -2.1347199061    0.7844763413
 C    0.7850311781   -0.7144843557    1.1931292156
 H    0.7768295235    1.7651474437    0.0286414283
 H    0.3686758049   -0.3683698457   -2.1577563127
 H    1.8650675412   -0.5019304510   -1.1869375909
 H    0.8521319212   -2.9474330225   -1.3341481817
 H   -1.8842258602   -2.4475846523   -1.4829156713
 H   -1.8828622746   -2.4847941925    1.4376569585
 H   -2.2455147924   -0.1975587770    0.0064499065
 H    0.8533369609   -2.9806238056    1.2736897197
 H    1.8661833328   -0.5321414292    1.1878049921
 H    0.3707130444   -0.4233143062    2.1631008356