18

 O   -0.2138387127   -0.0376401563   -0.0231681288
 C   -0.0829991855    1.1727008673   -0.0077801102
 C    1.1830577377    1.8857118774    0.0113416827
 C    1.0996538330    3.2434049429    0.0367975325
 N    2.0909443623    4.1644602728    0.0685898826
 C    3.5134710885    3.8615700803   -0.0991781008
 C    4.0158682019    2.8286059305    0.8832388357
 C    3.5398044165    1.5857285321    0.9295839041
 C    2.4515344567    1.0543553370    0.0259657146
 H   -0.9798591801    1.8373814859   -0.0052700137
 H    0.1033521248    3.6824666177    0.0519627263
 H    1.8208850677    5.1278826179   -0.0283749467
 H    3.7026388242    3.5289875688   -1.1320404324
 H    4.0538913600    4.8016909172    0.0319685512
 H    4.7952504424    3.1404429679    1.5721622978
 H    3.9474593225    0.8972896995    1.6660765228
 H    2.1576312459    0.0468841057    0.3308609436
 H    2.8454182744    0.9399303355   -0.9961171012