16

 O    0.0129615049    0.1418564043   -0.5289350086
 C    0.0282463153    1.2643529338   -0.1219651742
 O    1.1062125494    2.0670481525   -0.2441376892
 C    0.9451797094    3.4318396537    0.1960035688
 C    2.3500136885    4.0635230828    0.2501170469
 C    2.3139738395    5.1322353805   -0.8668049951
 C    1.0892634743    4.7153996462   -1.6883652833
 O    0.1886992525    4.1604746145   -0.7194982548
 H   -0.8175392588    1.7505267469    0.3997020487
 H    0.4009344296    3.4289300207    1.1454123623
 H    2.5505732777    4.4953712782    1.2321440597
 H    3.0962104231    3.2902484980    0.0611806544
 H    2.1594205431    6.1283634065   -0.4434470872
 H    3.2301634367    5.1549394892   -1.4603952144
 H    0.5720174103    5.5418892698   -2.1790982111
 H    1.3458383344    3.9587242624   -2.4414992629