15

 O   -0.2209055699    1.3496953331    0.0131642861
 C   -0.0558613058   -0.0262997598   -0.0667991336
 C    0.8923895060   -0.6806070821   -0.9949412647
 C    0.5344100068   -1.9640839851   -1.1715438542
 C   -0.6194659886   -2.2550159030   -0.2598662601
 O   -0.0572029195   -2.2155769765    1.1283696524
 C   -0.4579278626   -0.8813428122    1.2442878726
 C   -1.3061939705   -0.8619862319    0.0280260352
 O   -2.5923294899   -0.4593184603   -0.2025595576
 H    0.4738514259    1.7157190359    0.5701060213
 H    1.7760605589   -0.1910333983   -1.3869213809
 H    1.0751554151   -2.7180110434   -1.7275970173
 H   -1.2173353233   -3.1528849575   -0.4031068017
 H   -0.4913327768   -0.4143037969    2.2213723456
 H   -2.5979484557    0.1317827482   -0.9647151030