19

 O   -0.1746734472    1.4469072212    0.0375138733
 C   -0.0197677994    0.0506695022    0.0235534025
 C    0.3612465635   -0.6238793191    1.3903575821
 C   -1.0760319602   -1.1356793834    1.5030756422
 C   -1.7556310043   -2.3196575398    2.1991333892
 C   -3.0511546607   -1.4521491290    2.3571581040
 C   -2.2786145416   -0.2073681521    1.8383056098
 O   -2.5255858999    0.1150452305    0.4519709388
 C   -1.4057006566   -0.6853236730    0.0558627696
 H    0.6996095838    1.8381261951    0.1330113323
 H    0.6125939994   -0.2798720929   -0.8126129672
 H    1.0985598007   -1.4241241358    1.2668639948
 H    0.7043605132    0.0547736213    2.1775499129
 H   -1.8380122395   -3.2474554910    1.6256571226
 H   -1.2973903382   -2.5555033626    3.1646645409
 H   -3.8742707857   -1.7276607628    1.6948703571
 H   -3.4280487006   -1.3715232950    3.3794084279
 H   -2.2329098236    0.6795761129    2.4753444659
 H   -1.6253913633   -1.3440292666   -0.7896099587