21

 C   -0.3396124133    1.5424275599    0.0366118382
 C   -0.0169541697    0.0623626034    0.0650468909
 C    1.3636114388   -0.4487668709   -0.2776636309
 C    0.8362999175   -0.6011932477    1.1272090059
 C    1.4708818364    0.1214922669    2.2809682418
 O    2.2205056690    1.2723328288    1.9769721933
 C    0.7875589188    0.1034112354    3.6401013429
 C    2.0605786939   -0.6847443105    3.4015713924
 O    2.0084012838   -2.0769667357    3.3077803794
 H    0.5500741720    2.1562034328    0.2005431036
 H   -0.7449643565    1.8278086240   -0.9405186310
 H   -1.0875393306    1.8119430396    0.7919316567
 H   -0.8400770862   -0.5582132135   -0.2823233509
 H    1.4686320058   -1.3342433907   -0.8949003557
 H    2.1372394554    0.2980867740   -0.4199314098
 H    0.5268646160   -1.6020197542    1.4078039226
 H    1.6191425003    2.0238073810    1.9821631593
 H    0.8478707324    0.9940256462    4.2571091539
 H   -0.1364179958   -0.4599400204    3.7207629483
 H    2.9766623612   -0.2764109901    3.8262841005
 H    1.8109263207   -2.4250530681    4.1833651086