21

 C    0.0349031551    1.4924187090    0.0873933875
 C   -0.0177594285   -0.0002088707    0.0020316691
 C   -0.0636087957   -0.7500262586   -1.1064735789
 C   -0.0622708980   -2.2171006941   -0.8225974585
 C   -0.8793776743   -3.1724732864   -1.6572411143
 C    1.2058166212   -2.7087229824   -0.1206258251
 C    0.0254217807   -2.2975791028    0.7017557782
 O   -0.5768793771   -3.3207418694    1.4362062052
 C   -0.0177651409   -0.8709730417    1.2462036134
 H    0.9569575720    1.8360149714    0.5739632351
 H   -0.0134466759    1.9517225710   -0.9039054845
 H   -0.7960160688    1.8868574045    0.6870870832
 H   -0.0798605561   -0.3526238399   -2.1171990308
 H   -0.4430163215   -3.3147325628   -2.6525826543
 H   -0.9357634741   -4.1516115022   -1.1723166490
 H   -1.9032761661   -2.8056237775   -1.7953302043
 H    1.3889126530   -3.7783463452   -0.1501871286
 H    2.0939761691   -2.0851256813   -0.1423773744
 H   -1.5167906702   -3.1195907861    1.5110795074
 H    0.8263347251   -0.6529379663    1.9129254819
 H   -0.9277232190   -0.7095050484    1.8456671619