14

 O   -0.0105234079    0.1494113318   -0.7676049065
 C   -0.0152715719    1.1634754067   -0.1197293032
 C   -1.2918781019    1.7616518459    0.4637368387
 N   -1.1234011640    3.1774424377    0.7485936355
 C   -0.0269031448    3.6367584776    1.4596324897
 O   -0.0317130418    4.6607356595    2.1134067186
 N    1.0756602103    2.8057918231    1.3468792203
 C    1.2548691077    1.9527714303    0.1831687205
 H   -2.1005310661    1.6148812108   -0.2562149467
 H   -1.5402373638    1.1700203305    1.3613118012
 H   -1.9582184854    3.7047396689    0.9567743451
 H    1.9060263132    3.2221064433    1.7411859498
 H    2.0673697177    1.2431478554    0.3566018762
 H    1.5036816287    2.5196663087   -0.7301035793