21

 C    0.7110372719    1.5523077928   -0.8562072727
 C    0.3680765710    0.2080271980   -0.4141445474
 C    0.0884433534   -0.9071937084   -0.0525035465
 C   -0.2672246355   -2.2354433921    0.4023042495
 C   -0.1851409038   -2.5553679536    1.9360399324
 C   -1.5178689824   -3.3003744498    1.8005240435
 C   -1.7349228409   -4.7531744997    2.1138595935
 C   -2.4946429559   -3.6816701959    2.8674670368
 C   -1.7828891002   -2.6385513420    0.4435735094
 H    1.4678383493    1.5322161977   -1.6485267072
 H   -0.1653403521    2.0787902134   -1.2509738977
 H    1.1123298904    2.1535473100   -0.0324770398
 H    0.2951831567   -2.9897506057   -0.1577390172
 H    0.6859527827   -3.1250992061    2.2698420267
 H   -0.2688175380   -1.6445999168    2.5360082620
 H   -2.2819672580   -5.3573976386    1.3965519562
 H   -0.9503726949   -5.2880814943    2.6403847067
 H   -2.2229005534   -3.4949344665    3.9018779351
 H   -3.5536114817   -3.5642123630    2.6588780903
 H   -2.4255982125   -1.7568819072    0.5213343651
 H   -2.1417454460   -3.2723194923   -0.3715228686