12

 C    0.0804639497    1.4621039503   -0.0049993846
 C   -0.0139860840   -0.0306942478    0.0118546645
 N   -0.1174883473   -0.6433444971   -1.1216669407
 O   -0.2061684302   -2.0202509910   -1.1344084014
 N   -0.1909468464   -2.7871063457   -0.0026712142
 C   -0.0882512963   -2.1892754143    1.1338316140
 C    0.0136849424   -0.7433534288    1.3008340544
 O    0.1106012387   -0.1827301159    2.3786316323
 H    1.0089839580    1.7803626671    0.4792840195
 H    0.0455065323    1.8363870400   -1.0282394718
 H   -0.7386201981    1.8920627108    0.5799623393
 H   -0.0800810688   -2.8363181677    2.0067014387