13

 O   -0.4005349250    1.0968224190   -0.4656142657
 C    0.0410111011   -0.2118781179   -0.1707844428
 C    0.9893642990   -0.7619442924   -1.2538158319
 O    0.2933349862   -0.8586145000   -2.4845412453
 C    0.3532210675    0.1998701568   -3.3307633039
 O   -0.2735469941    0.2418269753   -4.3415541139
 C    0.6886654304   -0.2945863343    1.1503380558
 N    1.2353781734   -0.3311615341    2.1674833454
 H    0.3091883042    1.7191965109   -0.2673209505
 H   -0.8592805768   -0.8353848716   -0.1631083618
 H    1.8702241932   -0.1120904893   -1.3417554809
 H    1.3255854842   -1.7681476366   -0.9925300479
 H    1.0549720165    0.9821102842   -2.9868117768