19

 C   -0.2201586038    1.4253348914    0.4127483656
 C    0.0133755410   -0.0226859748    0.0269743457
 C    1.3597384256   -0.4419638385   -0.5080573555
 C    0.9221012376   -0.8817432289    0.8694645875
 N   -1.1399024384   -0.6744546411   -0.5446827930
 C   -1.5536681105   -0.6122964063   -1.8610942897
 C   -2.7467386627   -1.2823311677   -1.9069350308
 N   -3.0880279570   -1.7504363720   -0.6586004213
 C   -2.1111983998   -1.3624900575    0.1287041770
 H    0.6888118117    1.8633044727    0.8346508550
 H   -0.5118637925    2.0190853655   -0.4595818242
 H   -1.0176415363    1.5061873049    1.1584094596
 H    1.3792386326   -1.1926533268   -1.2890480846
 H    2.1245244641    0.3219207550   -0.5910511968
 H    1.3854342627   -0.4202511073    1.7342785568
 H    0.6564954216   -1.9238994020    0.9996091767
 H   -0.9621619700   -0.1160705942   -2.6125789881
 H   -3.3747986611   -1.4621414695   -2.7664389292
 H   -2.0374812050   -1.5497407029    1.1896630195