15

 C   -0.0479653204    1.6078843676    0.0618045514
 C    0.0407512529    0.0911948150    0.0061395472
 C    1.1072120647   -0.5982492356   -0.9016499589
 O    1.2826340064   -0.6311333004   -2.0804147527
 C    1.7213304454   -1.3298581400    0.2835774430
 N    2.0994638219   -0.2415509264    1.2313734677
 C    0.6914240377   -0.6786789815    1.1821541577
 C    0.0315671978   -1.2578258374    2.3037734602
 N   -0.5159623641   -1.7111413816    3.2172570085
 H    0.9009901824    2.0373590286    0.3897200515
 H   -0.2815717593    2.0009109425   -0.9319698937
 H   -0.8366784647    1.9305854321    0.7479469651
 H   -0.9260402426   -0.3611140155   -0.2457707457
 H    2.1727492055   -2.3119553811    0.3454257203
 H    2.5523546261   -0.6882374362    2.0296501284