18

 C    0.0165126544    1.5488368889    0.0278110334
 C    0.0632126538    0.0398900443    0.0197117480
 C   -0.8686226461   -0.7902273513    0.8715975547
 C    0.6117663592   -0.7970731235    1.1678364995
 C    1.4992659458   -1.9117993842    0.6045991123
 C    1.3956442694   -1.7952975359   -0.9104433285
 O    0.0749982410   -1.9879933943   -1.4376343707
 C    0.5427407668   -0.6442773389   -1.2494416476
 H    0.9760590820    1.9843479925   -0.2759408513
 H   -0.7521262793    1.9297563615   -0.6551791090
 H   -0.2146165820    1.9267141019    1.0283080289
 H   -1.5036700498   -0.2540818565    1.5699833552
 H   -1.3156465428   -1.6683275324    0.4226016836
 H    0.9370661957   -0.3128427560    2.0830437284
 H    2.5416715468   -1.7482716517    0.9024536356
 H    1.2147420564   -2.9106592126    0.9538355684
 H    2.1993225054   -2.1621288968   -1.5457801827
 H    0.6543086833   -0.0611873951   -2.1605710583