14

 O    0.0862240692    0.0296029272   -0.0258499819
 C   -0.0082177297    1.2137218348   -0.0294791549
 C   -1.2070269592    2.1500383386   -0.1327318817
 N   -0.6540676896    3.4970386439   -0.0659585888
 C    0.6026423046    3.3437000539    0.0494252620
 O    1.0993560935    2.0585426167    0.0784505122
 C    1.5907810551    4.4328305783    0.1698752947
 C    2.8710718146    4.2320870288    0.8736892758
 O    2.8147480136    4.2646190159   -0.5465794925
 H   -1.7453342239    1.9833340990   -1.0720382121
 H   -1.9150722973    1.9618554041    0.6815605425
 H    1.1425026223    5.4219077548    0.1235579420
 H    3.3402825078    5.0917857694    1.3487954356
 H    3.0919737489    3.2604972046    1.3089446073