16

 C    0.0258867635    1.5064640573    0.1047476014
 C   -0.0229898929    0.0035854855   -0.1121117665
 C    0.8602665747   -0.5041907922   -1.2387748113
 C    0.8309093315   -2.0195287567   -1.2017800534
 O    1.1984071974   -2.5143942626    0.0935809284
 C    0.9307180624   -1.8332558390    1.2301676175
 O    1.1985937195   -2.3017715799    2.2954473309
 O    0.3813051061   -0.6028004223    1.1374371438
 H    1.0526528108    1.8343876138    0.2918091430
 H   -0.3542581484    2.0278341827   -0.7789821554
 H   -0.5869822425    1.7857851570    0.9651007755
 H   -1.0605143044   -0.3077746421   -0.2996147441
 H    0.4924573790   -0.1421604211   -2.2037791566
 H    1.8848443624   -0.1385436185   -1.1057475160
 H   -0.1704818317   -2.3958940811   -1.4486353475
 H    1.5434351126   -2.4688639308   -1.8971670597