19

 C   -0.0510721961    1.5026414987   -0.0331922347
 N    1.2302817679    0.7772060260   -0.0500486379
 C   -0.0261356916    0.0187460068    0.0520210118
 C   -0.2717834951   -0.7310734286    1.3219756453
 C    0.2116110298   -0.1561403475    2.6565653196
 C    0.4855047712   -1.3819642442    3.5005361425
 C    0.3158135867   -2.5123935520    2.8085639162
 C   -0.1728489687   -2.2262840334    1.4278284187
 N   -1.4905575566   -1.5530735033    1.3216114678
 H   -0.2223697545    2.0979977260    0.8594019230
 H   -0.4148751632    1.9546195611   -0.9521180318
 H    1.5989644881    0.7267133987   -0.9951840209
 H   -0.3723647603   -0.5165258054   -0.8293566195
 H    1.1212220633    0.4362857968    2.4984275958
 H   -0.5290649445    0.5112016746    3.1169913886
 H    0.7646998884   -1.3178028334    4.5461328368
 H    0.4725965637   -3.5174807015    3.1823980904
 H    0.0791623861   -2.8751386123    0.5947413165
 H   -1.9360029744   -1.5372384272    2.2376286017