20

 O    0.0784388147    1.3711353289   -0.0787155007
 C    0.0519213594   -0.0319644354    0.0030120990
 C    0.7834965400   -0.6793492243   -1.1965571560
 C    1.0567144731   -2.1370437938   -0.7003120378
 C    0.4459886537   -2.1458241753    0.7317142270
 C    0.7739711950   -0.7124857977    1.1931251350
 C   -1.0701923932   -2.0760301462    0.5215940979
 N   -1.7913729882   -1.1088297388    1.3832348102
 C   -1.3287261586   -0.7000992131    0.0348598137
 H   -0.4056044534    1.7147551492    0.6799824521
 H    0.1795709470   -0.6459302681   -2.1079537810
 H    1.7081418122   -0.1302319854   -1.3935190541
 H    0.6000537143   -2.8917967839   -1.3480551396
 H    2.1289113871   -2.3497839286   -0.6615886892
 H    0.7964186182   -2.9601989891    1.3684883250
 H    1.8457613970   -0.4989901963    1.1861069256
 H    0.3467573114   -0.4548337542    2.1615281218
 H   -1.6040170859   -2.9369984179    0.1320836242
 H   -2.7855832956   -1.3175842532    1.3276687827
 H   -2.0506869381   -0.4687740767   -0.7418740356