15

 C    0.0404999607    1.3558470677    0.0074894931
 O   -0.0474073957   -0.0780900025    0.0028062861
 C   -1.2862043459   -0.5811570972    0.0122147480
 O   -2.2958777777    0.0809394560    0.0239630433
 C   -1.2535183374   -2.0962813817    0.0059715533
 N   -2.6064397148   -2.5946753604    0.0165538650
 C   -2.8830725135   -3.9207199915    0.0072350047
 O   -2.0423362844   -4.7962363995   -0.0085973438
 H    1.1054767094    1.5848520868   -0.0006061170
 H   -0.4493003651    1.7716317831   -0.8760993776
 H   -0.4343933123    1.7649345343    0.9022622997
 H   -0.7010796697   -2.4424421249   -0.8761303595
 H   -0.6845101919   -2.4489858572    0.8748754675
 H   -3.3387955766   -1.8995192938    0.0271368248
 H   -3.9726691251   -4.1190965592    0.0157529823