21

 C    0.1673458204    1.5987289884   -0.3277648203
 C    0.0667912438    0.1268586483    0.0096237812
 C    1.2359943440   -0.8212064052   -0.0430007685
 O    2.5310878095   -0.2729850035   -0.0747596623
 C    2.8103393086    0.3938730104    1.1533942085
 C    1.6276564543    0.1517166347    2.1459794480
 C    2.0455956318   -0.7476264481    3.3147809191
 O    1.0923691282    1.3795516411    2.6440317171
 C    0.5867269514   -0.5389182169    1.2809552156
 H    1.1894114103    1.9703751969   -0.2470300420
 H   -0.1572660559    1.7631159849   -1.3609510519
 H   -0.4622757364    2.2027262538    0.3309894556
 H   -0.8669347527   -0.3279879005   -0.3158290436
 H    1.1803056630   -1.7717857358   -0.5631573533
 H    3.7628721214    0.0111081173    1.5410981261
 H    2.9149042570    1.4727070416    0.9860530573
 H    2.8493790417   -0.2787727511    3.8961653439
 H    1.1982226539   -0.9247946089    3.9831448842
 H    2.4177561675   -1.7118045150    2.9545289525
 H    1.7208697059    1.7432629057    3.2771683224
 H   -0.0539750477   -1.2633794282    1.7709181203