18

 C    0.0022727885    1.5550530110   -0.0723912291
 C    1.5666580660    1.4930694016    0.0485706339
 C    1.3709165542    0.0939690710    0.5905674099
 C    1.8351208587   -0.6717803500    1.5667106889
 C    0.9929140757   -1.8322468304    2.0419585628
 O   -0.2355461569   -1.9890048182    1.3466797877
 C   -0.9032688393   -0.7716740223    1.0256772582
 C   -0.0335649763   -0.0038992793    0.0386827184
 H   -0.4465777312    2.0331937572    0.8025405250
 H   -0.4120892520    2.0026605552   -0.9781730794
 H    2.0442053716    1.5076308946   -0.9376540389
 H    2.0651436879    2.2267225503    0.6875679616
 H    2.7516316189   -0.4593413428    2.1112501251
 H    1.5189218020   -2.7878576106    1.9239079884
 H    0.8035124293   -1.7082880251    3.1244930635
 H   -1.8761908559   -1.0661028293    0.6215963409
 H   -1.0722753618   -0.1645439980    1.9302877343
 H   -0.0755658895   -0.4698588150   -0.9524687811