15

 C    0.4049499732    0.7892494601    0.6446107955
 C   -0.6131817105   -0.1033439863   -0.0281618697
 O   -1.6077553939   -0.5142228541    0.5209488594
 C   -0.2755450897   -0.5249464088   -1.4670321594
 C    0.5376162049   -1.8257624103   -1.3740391491
 C   -0.2729607728   -3.1020362689   -1.3785748027
 O    1.7395320845   -1.7982626830   -1.2549360658
 H    1.4084922559    0.3724876607    0.5052539967
 H    0.4023417441    1.7756863891    0.1658849170
 H    0.1743195227    0.8972549412    1.7048620936
 H   -1.2113460411   -0.6849098166   -2.0057957040
 H    0.3391521517    0.2287804602   -1.9626326776
 H   -0.7264162337   -3.2460970427   -2.3664280454
 H    0.3613515816   -3.9561932612   -1.1397319333
 H   -1.0969015669   -3.0168143894   -0.6615747953