16

 C   -0.0591828338    1.4697956883   -0.0067977695
 C    0.0005809871    0.0180441001   -0.0163982107
 C    0.0379773684   -1.1871163203   -0.0228878581
 C    0.0629361830   -2.5980831810   -0.0282112876
 C    1.1131397129   -3.4256494828   -0.1565924004
 C    0.6402731801   -4.8433628739   -0.1017110393
 O   -0.7755469047   -4.7509624152    0.0696947805
 C   -1.1578463456   -3.4332772143    0.1180878390
 N   -2.3436166289   -3.0224213586    0.2621855352
 H    0.5350478052    1.8855749059    0.8146488836
 H    0.3294725169    1.8887678934   -0.9417625784
 H   -1.0899648440    1.8190900593    0.1145055487
 H    2.1490414523   -3.1433619554   -0.2814311162
 H    0.8560067104   -5.4038968161   -1.0219375131
 H    1.0689735574   -5.4067726057    0.7387301913
 H   -2.9884582167   -3.8103145638    0.3388972249