21

 C    0.0118919700    1.4752733494   -0.0527966036
 C   -0.0309016406   -0.0379088133    0.0398693212
 C   -0.3084786208   -0.6560943443    1.3960566433
 C    1.0709534659   -0.7360039549    0.7984528438
 O    1.4863705561   -1.9853671941    0.3240813352
 C    1.7618940511   -1.9879679098   -1.0746917754
 C    0.5182168547   -1.6785749560   -1.8868109514
 C   -0.8033011575   -2.1805030919   -1.3667190195
 C   -0.4578107904   -0.7137595121   -1.2451701585
 H    0.6252770833    1.8023782021   -0.9005918825
 H   -0.9940601681    1.8899868007   -0.1890508418
 H    0.4319049140    1.9196711332    0.8549131577
 H   -0.4630154275    0.0132490383    2.2360503807
 H   -0.8745880003   -1.5791622342    1.4415997848
 H    1.8743255415   -0.1405263847    1.2332354921
 H    2.5600345197   -1.2649146358   -1.3097457967
 H    2.1407906763   -2.9911097400   -1.2959936400
 H    0.6726653094   -1.6274288263   -2.9604125141
 H   -1.5715403049   -2.4491400260   -2.0834166301
 H   -0.7821013579   -2.7981167847   -0.4765879011
 H   -1.0019206335   -0.0561552757   -1.9164277842