17

 N   -0.3338828221    1.3048072282    0.1519217971
 C   -0.1591296031   -0.0698035382    0.2826783836
 O    0.6865985281   -0.5656595945    1.0009140775
 N   -1.0394885484   -0.8133266099   -0.4750503807
 C   -1.1165547963   -2.2229651504   -0.3123215414
 C   -1.9114934686   -2.8324906811    0.8250636522
 O   -2.5432678858   -1.9244010788    1.6896515089
 C   -2.4716804537   -2.8526741671   -0.5826928061
 O   -3.5373029353   -1.9823629882   -0.8251350396
 H    0.4554415762    1.8235546352    0.5063331131
 H   -0.6809104561    1.6470145361   -0.7318624634
 H   -1.8789453528   -0.3818024258   -0.8346411635
 H   -0.2293680720   -2.7715322097   -0.6122677687
 H   -1.5323514518   -3.7395904741    1.2874414102
 H   -3.0963250953   -2.4280418352    2.2958259857
 H   -2.5351426944   -3.7718548481   -1.1565176784
 H   -3.7868577287   -1.6316936384    0.0442700435