18

 C    0.0121022510    1.6390794661    0.0168535234
 N    1.5032564252    1.3911828698    0.0290858963
 C    1.1705173152    0.1417339512    0.8601662768
 C   -0.0914945982    0.0961903400   -0.0304948804
 O   -1.2941999012   -0.6101368211   -0.0164749980
 C   -1.6223328625   -0.7942096788   -1.4136047336
 O   -0.6206847289   -0.1747366427   -2.2104117712
 C    0.5292659219   -0.2404586641   -1.3741015386
 C    1.6423896412    0.8263628889   -1.3687770081
 H   -0.3153969677    2.0660414982    0.9669143294
 H   -0.3584015477    2.2267814879   -0.8258925022
 H    1.8958983929   -0.6740932531    0.7965006942
 H    1.0067978968    0.4375315519    1.8969689324
 H   -1.6702402536   -1.8770754007   -1.6033647217
 H   -2.5822436200   -0.3218376155   -1.6445985538
 H    0.9343697360   -1.2634761416   -1.3934164455
 H    1.4989703118    1.6260648324   -2.0980388137
 H    2.6358583880    0.3943739710   -1.5049669757