22

 C   -0.1614640228    1.5877065067    0.2421125476
 C   -0.0787442291    0.0622067151    0.1418145963
 C   -1.4413785462   -0.6012451767   -0.0904966752
 C   -1.3738884035   -2.1201645398   -0.1773238643
 C   -1.0608157626   -2.9120912981    1.1419966655
 C   -2.2733286311   -3.7672017544    0.8432243601
 C   -2.7281662400   -2.8943888646   -0.3074256926
 N   -2.6446450952   -4.8615850099    1.3597086685
 O   -3.8144636078   -5.3398641087    0.7335615376
 H    0.8255968265    2.0318187115    0.4041099390
 H   -0.5763031339    2.0230330632   -0.6738828042
 H   -0.8053783519    1.8955631392    1.0735252652
 H    0.6007277911   -0.2162942080   -0.6746381307
 H    0.3701066945   -0.3405801682    1.0592526158
 H   -2.1294459259   -0.3170858861    0.7190851703
 H   -1.8844064988   -0.2078949146   -1.0162033772
 H   -0.6835017367   -2.4170562382   -0.9735365943
 H   -0.1015481434   -3.4319510147    1.2029073255
 H   -1.1795152293   -2.3010386673    2.0446845098
 H   -3.6056633742   -2.2848776507   -0.0622308126
 H   -2.9273044057   -3.4142343077   -1.2481031685
 H   -3.9692879639   -6.1662027282    1.2031879984