23

 C   -0.2159054108    1.7144805788    0.0912229667
 C   -0.1968334453    0.2242851118    0.4499701786
 C   -1.3780243525   -0.5382408341   -0.1405095290
 C   -1.4194585750   -0.7488852376   -1.6879007941
 C   -1.8545225499   -2.1945849430   -1.4185940017
 O   -2.3595690890   -3.0516673907   -2.0863850372
 C   -1.5100295992   -2.0977502666    0.0831924139
 C   -0.1912766312   -2.8250179951    0.3848647442
 C   -2.6190770718   -2.5590847845    1.0267126922
 H    0.6401913951    2.2383681044    0.5272741221
 H   -0.1795573294    1.8625694860   -0.9934751681
 H   -1.1270338669    2.1985601008    0.4599402066
 H    0.7442657740   -0.2196793578    0.1030032114
 H   -0.2023421246    0.1138960131    1.5423275676
 H   -2.3085503383   -0.0601765754    0.1872434718
 H   -2.1005883546   -0.1408103733   -2.2877248064
 H   -0.4249333214   -0.7101121193   -2.1484833330
 H    0.6067469190   -2.5517649811   -0.3122944034
 H    0.1556944628   -2.5978932676    1.3985792298
 H   -0.3386485053   -3.9068339875    0.3105725451
 H   -2.7865551888   -3.6360425419    0.9254497713
 H   -2.3547660840   -2.3529516535    2.0702014941
 H   -3.5654729030   -2.0531489359    0.8108870774