18

 O   -0.7343393765    0.8875051715   -1.0348111899
 C   -0.0489408193    1.0794408098   -0.0603674571
 C    1.1313585969    2.0226535823   -0.0157838937
 C    1.2955565736    2.8880663344   -1.2646332924
 C    2.5417796862    3.8063027046   -1.2237369625
 C    2.9699763016    3.9261765865   -2.6938324599
 C    2.3989717039    2.6704895262   -3.3645714035
 O    2.6395006953    2.2609233363   -4.4775517697
 N    1.5360544125    2.0995885813   -2.4619505805
 H   -0.2522496883    0.5399819437    0.8913154604
 H    1.0304213929    2.6508127432    0.8805262655
 H    2.0301116320    1.4098605754    0.1509333601
 H    0.3833254118    3.4935343728   -1.3799059803
 H    2.3242765174    4.7643498609   -0.7466860249
 H    3.3306863686    3.3177711561   -0.6416076012
 H    2.5194604667    4.7959894931   -3.1855032025
 H    4.0485411418    3.9907159270   -2.8461176659
 H    0.8682292929    1.4033383049   -2.7575493018