20

 C    0.0069343294   -1.2007842820    0.0439648685
 C    0.0150021189    0.0017986188    0.0513453091
 C    0.0062436709    1.4438045912    0.0115008178
 C   -1.2156704805    2.0694807799   -0.6799397552
 C   -0.8699917163    3.2180956481   -1.6402808602
 C    0.1408070730    4.1953114057   -1.0327488765
 C    1.4732884364    3.4841967510   -0.7548242833
 C    1.3194266367    2.1800876167    0.0024913122
 N    0.5423654841    2.0964524417    1.2406723549
 H    0.0063790517   -2.2623929831    0.0552212200
 H   -1.7491542415    1.2846647137   -1.2221340820
 H   -1.9076427186    2.4243722953    0.0955773466
 H   -0.4446362830    2.8020148070   -2.5630411170
 H   -1.7894004248    3.7394772943   -1.9272321820
 H    0.3155500393    5.0385230153   -1.7086570669
 H   -0.2667924397    4.6288009484   -0.1090407726
 H    1.9654800030    3.2625047163   -1.7109216755
 H    2.1563401846    4.1420605320   -0.2025735479
 H    2.2189763527    1.5686937034    0.0334769941
 H    0.0309822038    2.9641928863    1.3941938558