19

 O   -0.2358230395    0.7712807825    1.0283324431
 C   -0.0142494131    0.1518184553   -0.2277649880
 C   -1.1951980911   -0.6942656544   -0.6645761864
 C   -0.9540317989   -2.0312721828   -1.3406885053
 C   -1.4625572740   -1.9688529513    0.0758695585
 O   -0.6024355083   -2.2327282520    1.1528656101
 C   -0.5635376669   -3.5922450390    1.5627906406
 C    0.1702508253   -4.4786585692    0.6574504362
 C    0.7837279888   -5.2209777431   -0.0612961221
 H   -0.3346410967    0.0504113350    1.6612290348
 H    0.1516498180    0.9623009874   -0.9450898926
 H    0.8955701345   -0.4645590925   -0.2114695200
 H   -2.0733577056   -0.1298842073   -0.9637164311
 H   -1.6314406110   -2.3651239774   -2.1188682554
 H    0.0780841828   -2.3334393660   -1.4747334844
 H   -2.4965065973   -2.2564237928    0.2681953780
 H   -0.0792226572   -3.5894085067    2.5449235758
 H   -1.5864489953   -3.9744922351    1.7032394294
 H    1.3219994256   -5.8764022906   -0.7007393011