16

 C   -0.3935891304   -1.2348765111   -0.4045854018
 C   -0.1942522991   -0.0736428926   -0.1653254865
 C    0.0139680745    1.3417437742    0.0714458193
 O   -0.1498625576    1.7826370906    1.4573862906
 C    1.0759019772    2.5558581240    1.3937745533
 C    2.3344625227    1.8635837964    1.9377954436
 C    2.2980168542    0.4161548702    1.6918710926
 N    2.6544923302    1.2849081402    0.5484586687
 C    1.4231989500    1.9904839947    0.0201267880
 H   -0.5579670973   -2.2643265294   -0.6091507735
 H   -0.6746674003    1.9115831052   -0.5693345043
 H    0.9309185851    3.6111034449    1.6291124463
 H    3.0992325634    2.3539574332    2.5314641000
 H    3.1554624234   -0.1598318202    2.0264533174
 H    1.3543117455   -0.1141786707    1.7158471447
 H    1.6715670483    2.5804141204   -0.8597155384