21

 C    0.0065454745    1.5723397660    0.1435206840
 C    0.0267378586    0.0443397469    0.0189702793
 C    0.6594327285   -0.6056881610    1.2550029935
 O   -1.3079493765   -0.4567924726   -0.1627677727
 C    0.7685400411   -0.4081834268   -1.2490381826
 N    0.1149243793    0.1186955112   -2.4405057545
 C    0.6966824899   -0.3875245208   -3.6730152592
 C   -0.0068037561    0.1398244588   -4.8466202327
 N   -0.5697120369    0.5372385051   -5.7734580194
 H    1.0168177696    1.9670938645    0.2910314219
 H   -0.4114143296    2.0240384958   -0.7576343207
 H   -0.5941375807    1.8754853520    1.0093839161
 H    0.1230429345   -0.3044397241    2.1614322702
 H    0.6133561789   -1.6956128549    1.1794195329
 H    1.7058788489   -0.3053222809    1.3723846988
 H   -1.8722019438   -0.0576553864    0.5070423666
 H    1.8014599812   -0.0398466413   -1.2157424647
 H    0.8157101404   -1.5127233516   -1.2452463524
 H   -0.8702259216   -0.1220002395   -2.3897166019
 H    1.7451777224   -0.0675904808   -3.7319338904
 H    0.7061553675   -1.4912733593   -3.7514213819