23

 C   -0.0398856344    1.5126978560    0.0412082146
 C    0.0218230604    0.0020311171    0.0456915129
 C    0.8648020501   -0.7989675160   -1.0005959824
 C    0.7382016643   -1.9350734177    0.0500503198
 C    0.8096424339   -0.8128894816    1.1208095068
 C   -0.7708374751   -2.2375761360    0.0204889145
 C   -1.3271595625   -0.7688297367   -0.0208303275
 C   -2.3166867021   -0.4437019798    1.0975482584
 O   -1.9216234438   -0.4487567153   -1.2819233690
 H    0.9639593452    1.9470934363   -0.0056301941
 H   -0.6075201000    1.8695441618   -0.8237647094
 H   -0.5243676046    1.9001336719    0.9447393666
 H    0.4330003815   -0.9502116685   -1.9911917279
 H    1.8844267827   -0.4124083288   -1.0784710383
 H    1.4186454830   -2.7870553184    0.0637128446
 H    1.8212655217   -0.4222068540    1.2582647525
 H    0.3486525742   -0.9915953266    2.0972380036
 H   -1.0779618794   -2.7881256113   -0.8736518493
 H   -1.1044852210   -2.7931444526    0.9033251856
 H   -1.8799116929   -0.5835407016    2.0900018980
 H   -2.6666083739    0.5891324645    1.0124840087
 H   -3.1916291600   -1.1030338852    1.0335091401
 H   -2.7751546376   -0.8914192875   -1.3278303187