21

 C   -0.0218637273    1.5353788944    0.0091409608
 C    0.1199772564    0.0269580659    0.0397756970
 C    1.3900334921   -0.7464244826   -0.1935072840
 C    0.6927989742   -0.7818060839    1.1741876171
 C    1.8997782616   -0.0885436178    1.8269339302
 C    2.6306369981   -0.9638068405    2.8271683129
 O    3.9012841327   -0.3515284810    3.0824524970
 C    2.6072288072   -0.0489975901    0.4194361764
 O    3.7499807839   -0.8683955811    0.3141558520
 H    0.8184471473    2.0482134574    0.4833556668
 H   -0.0867372043    1.8973144481   -1.0227918550
 H   -0.9338799268    1.8484885488    0.5292733295
 H   -0.7325100673   -0.4813221564   -0.4088855770
 H    1.4735011429   -1.5217835580   -0.9456211419
 H    0.1331116913   -1.5903098534    1.6333731657
 H    1.7077130643    0.8889264249    2.2835712616
 H    2.0448564930   -1.0453991322    3.7545365781
 H    2.7638376042   -1.9716201714    2.4130762899
 H    4.3827300937   -0.9037684522    3.7061813331
 H    2.8200180468    0.9609449586    0.0390895971
 H    4.3248526461   -0.6257401377    1.0536207725