19

 C   -0.1175757468    1.5902468670    0.1465814689
 C   -0.0748663088    0.1480081606   -0.3721673878
 C   -1.3889429559   -0.5756224955   -0.1576181642
 C   -1.5484738903   -2.0903272602   -0.1063063354
 C   -0.3351442112   -2.9409496917    0.1976336046
 C    0.1382590588   -2.4724585316    1.5784323997
 O    1.0993434630   -2.8264735298    2.1925888469
 O   -0.7175322489   -1.5134588940    2.0530889213
 C   -1.7601573585   -1.2540334839    1.1326091461
 H    0.8294467393    2.1039164666   -0.0432268862
 H   -0.9132348672    2.1637521300   -0.3414100368
 H   -0.3028018566    1.6095048929    1.2249082388
 H    0.1579222044    0.1437075570   -1.4444657098
 H    0.7471563918   -0.3832919716    0.1173831720
 H   -2.2365324613   -0.0817279830   -0.6296280949
 H   -2.3852065090   -2.5412094884   -0.6251782937
 H   -0.5849205600   -4.0047890575    0.2563195021
 H    0.4937969329   -2.8436952003   -0.5091765861
 H   -2.7117926957   -1.1034627466    1.6264269344