19

 O    0.1141578817    1.3304906010   -0.3826438989
 C    0.0668644045   -0.0402736228   -0.0045319461
 C    0.6745765259   -0.8528166044   -1.1733096811
 O   -0.1033355264   -2.0300991614   -1.2831362824
 C   -1.4467938412   -1.6250532596   -1.0475563547
 C   -1.3757598227   -0.6531978163    0.1391876217
 C   -1.4244683019   -1.3159650118    1.5411937425
 C   -0.0980200356   -0.9659007442    2.1670233829
 C    0.7010986754   -0.2989765472    1.3375392707
 H   -0.1176048687    1.8524962785    0.3929486832
 H    0.6101022604   -0.2382934891   -2.0851655548
 H    1.7147776207   -1.1452394444   -1.0117030176
 H   -1.8562572194   -1.1187566835   -1.9369660622
 H   -2.0395471211   -2.5240485731   -0.8579822353
 H   -2.1221412550    0.1391177056    0.0489009480
 H   -2.2698955594   -0.9638371421    2.1453206088
 H   -1.5402962380   -2.4048219941    1.4648986852
 H    0.1611107637   -1.2634622888    3.1779703317
 H    1.7100396970    0.0365399478    1.5541501782