20

 O    0.0001371724    1.2865889895   -0.4887300960
 C   -0.0010090331   -0.0570112738   -0.0585987187
 C    0.2045223592   -0.2912187615    1.4736728065
 C   -1.2773233122   -0.7020863714    1.6017018093
 C   -2.2763299543    0.4947206907    1.7128772552
 C   -2.5828347690    0.3283551846    0.2151877126
 C   -3.9509664190    0.2000372346   -0.3438596326
 N   -3.0563024169    1.2974793186   -0.7569423731
 C   -1.4377175055   -0.6586799032    0.0329267422
 H    0.9037431069    1.6130978934   -0.4282789731
 H    0.6694124682   -0.6674214161   -0.6792805948
 H    0.8976135689   -1.1124519565    1.6791308022
 H    0.5177647128    0.5871832728    2.0471081501
 H   -1.5233461544   -1.5827716133    2.1941230068
 H   -3.1241330370    0.3487334504    2.3878158336
 H   -1.7842637678    1.4395924224    1.9647824507
 H   -4.1655482591   -0.5284894099   -1.1223200457
 H   -4.7878690734    0.4160568760    0.3172979179
 H   -3.3098410145    2.1681099759   -0.2964901622
 H   -1.6181927723   -1.5355400233   -0.5901490507