20

 O   -0.1345867278    1.3705148763   -0.0155503271
 C   -0.1125293168   -0.0123521978    0.3031973960
 C   -1.3860908205   -0.6361419658   -0.2516537826
 C   -1.4802472596   -2.1279053040    0.0340979326
 O   -2.6866464725   -2.6122699707   -0.5307741124
 C   -2.8780809722   -3.9763294413   -0.3333607539
 C   -3.4937568981   -4.4560438932    0.9579116155
 C   -4.2918938957   -4.4553566341   -0.3325612288
 H    0.6675765898    1.7712925095    0.3314006065
 H    0.7695692324   -0.5078283694   -0.1354891128
 H   -0.0622106032   -0.1684454724    1.3937093594
 H   -2.2535312574   -0.1276597771    0.1824637542
 H   -1.4260127350   -0.4705463749   -1.3334054620
 H   -0.6181244138   -2.6615814312   -0.4015122548
 H   -1.4642639471   -2.3223607049    1.1187779546
 H   -2.1179641539   -4.6076579383   -0.7970791175
 H   -3.1695091995   -5.4032596489    1.3748787796
 H   -3.7470403315   -3.6970874925    1.6897702178
 H   -5.0559185172   -3.6939096880   -0.4386706061
 H   -4.5195676207   -5.4010711913   -0.8110282083