19

 C    0.0235853380    1.5312366686    0.0002008361
 C    0.0018415552    0.0245087397   -0.0029987175
 C   -0.0645148768   -0.7033923866   -1.1886963940
 C   -0.0693024303   -2.0929840571   -1.2159864836
 C   -0.0070455288   -2.8066153114   -0.0136589316
 N   -0.0721898904   -4.2058943624   -0.0064301139
 C    0.0555290157   -2.0956204940    1.1876694516
 C    0.0615665583   -0.6985872544    1.2059308773
 N    0.1906282261   -0.0181831370    2.4227271978
 H    0.9128090630    1.9272429171    0.5071920831
 H    0.0209478446    1.9220023209   -1.0206063198
 H   -0.8507358560    1.9626495266    0.5099338745
 H   -0.1097207116   -0.1593904934   -2.1284723084
 H   -0.1235544190   -2.6244938546   -2.1607375302
 H    0.2497691592   -4.6348584619   -0.8624883357
 H    0.3647924879   -4.6373462440    0.7957925056
 H    0.0985746561   -2.6393509525    2.1286572913
 H   -0.0840439163   -0.5591994371    3.2301881105
 H   -0.2334314849    0.8979005632    2.4404462867