16

 C   -0.1397776896    1.6235841675    0.0686034978
 C   -0.0169864478    0.1076806664    0.0908151735
 C   -1.3782267179   -0.5504129770   -0.0338436449
 O   -2.4046391853    0.0784340059   -0.1356058300
 C    1.1238382075   -0.6480184597   -0.6922833315
 C    2.1879100916   -0.1283283431    0.3015879399
 C    0.9552686876   -0.6355791159    1.0847921968
 O    0.9307006035   -1.8179920059    0.1938323105
 H    0.8182325481    2.1363037397    0.1565265746
 H   -0.6202643542    1.9445225520   -0.8596761922
 H   -0.7867966437    1.9566566588    0.8846876079
 H   -1.3728619612   -1.6544752654   -0.0256425807
 H    1.2003763526   -0.8364741283   -1.7638128463
 H    3.0629702144   -0.7726568652    0.3890777438
 H    2.4404387988    0.9308694437    0.3182334586
 H    0.8286711755   -0.8096640232    2.1539902520