19

 O    0.1889269426    1.4591687098   -0.1304772269
 C    0.0440994590    0.0732818037    0.0015469779
 C    0.1534144914   -0.6366799145    1.3877217501
 C   -0.9483972101    0.0711021539    2.2049384094
 C   -2.0956439507    0.0892705856    1.1369639703
 C   -1.3666924979   -0.6214331856   -0.0077023080
 O   -2.1247538862   -0.8320261947   -1.1476961545
 C   -0.6665424505   -1.7924089988    0.7432889845
 O   -0.0011564193   -2.6129192294   -0.1954793049
 H   -0.4812666993    1.9005453955    0.4003256541
 H    0.7105153366   -0.3794526708   -0.7308040330
 H    1.1146233680   -0.8139818284    1.8697194638
 H   -1.2249136259   -0.4877068309    3.1030404550
 H   -0.6445029786    1.0722461717    2.5238928788
 H   -2.9851636124   -0.4628537873    1.4497061586
 H   -2.4216714652    1.0959168704    0.8546311647
 H   -1.6205387955   -1.4248159480   -1.7177804266
 H   -1.2913899900   -2.3861385521    1.4239754030
 H    0.6097815139   -3.1885767402    0.2739784538