21

 C   -0.1125328472    1.5458064205   -0.0483348451
 C    0.0177397940    0.0352283188    0.0237706714
 O    0.7341458442   -0.4006911989   -1.1400002168
 C    0.8599426161   -1.7982174867   -1.1719481621
 O    1.5787594154   -2.3001601524   -0.0759063674
 C    0.9226390064   -1.9999194440    1.1638481427
 C    1.7388933862   -2.6182093298    2.2843241732
 C    0.7815453077   -0.4674897010    1.2657504683
 O    2.0509986916    0.1534425619    1.3665933853
 H    0.8719334008    2.0128594673    0.0205508041
 H   -0.5841055745    1.8397042671   -0.9895101419
 H   -0.7265116425    1.9112779154    0.7805072336
 H   -0.9834214431   -0.4302161121    0.0181823474
 H   -0.1439061769   -2.2632276922   -1.2052070338
 H    1.4246559883   -2.0511867205   -2.0717457057
 H   -0.0886168133   -2.4426571979    1.1455047379
 H    2.7178930160   -2.1388751123    2.3464208094
 H    1.2273199418   -2.4832376362    3.2422351346
 H    1.8738201856   -3.6882479114    2.1071798679
 H    0.2307627561   -0.2027094419    2.1755707570
 H    2.5255146972   -0.0873778636    0.5604005399