13

 O   -0.1141359563    1.2731402760   -0.4094999676
 C    0.0631606656   -0.0245452763   -0.0986272520
 N    1.2238250411   -0.5522266619   -0.2212114365
 C    1.4454288126   -1.8591505805    0.2271204703
 O    2.2440619125   -2.1299913680    1.0830297411
 N    0.7595678572   -2.8708434312   -0.4803967499
 C   -0.5154472059   -2.9406283697   -0.3949859646
 C   -1.4192641581   -1.9812132315    0.2318517404
 C   -1.1717945573   -0.6610817756    0.3547997982
 H    0.7532469693    1.6174498620   -0.6691633238
 H   -0.9961675755   -3.7982979414   -0.8721470261
 H   -2.4047428889   -2.3507443661    0.5019519622
 H   -1.9496439866    0.0085447341    0.7068627484