10

 O   -0.0077273743    1.3666445136    0.0094816921
 N    1.3319350542    1.8025553521   -0.0010300824
 C    2.1076076023    0.7373271635   -0.0142194012
 C    1.3062151938   -0.4290160994   -0.0127879542
 C    0.0239846810    0.0276485390    0.0019895952
 C   -0.7774076449   -1.1386947315    0.0034268232
 N   -0.0017348859   -2.2039231326   -0.0097387056
 O    1.3379270247   -1.7680119558   -0.0202968909
 H    3.1782934092    0.8717828529   -0.0237878911
 H   -1.8480934301   -1.2731506119    0.0129944949