17

 O   -0.0796106654    1.3942028039    0.0601349746
 C   -0.0419928498   -0.0164357673    0.2129420581
 C   -1.3712563857   -0.5737308918   -0.3005359791
 C   -1.4690277521   -2.0598780254   -0.1434887770
 N   -1.2767358358   -2.8606232232   -1.1864846535
 N   -1.4080681566   -4.1162685040   -0.6787608587
 C   -1.6794132990   -4.1127872726    0.6432727360
 O   -1.8435560631   -5.2958605309    1.2743068929
 C   -1.7274173307   -2.7948593607    1.0454139801
 H    0.7735342489    1.7477474800    0.3274389234
 H    0.7839146283   -0.4647761383   -0.3599853562
 H    0.0978392079   -0.3012489706    1.2683341577
 H   -2.1832301322   -0.0761189223    0.2416722136
 H   -1.4750699193   -0.3178265716   -1.3584402706
 H   -1.3263458140   -4.9183733642   -1.2794227773
 H   -2.0354337255   -5.1257378452    2.2015272633
 H   -1.9260179960   -2.4184667257    2.0360484326