16

 C   -0.0513071970    1.4583733949    0.0257983449
 C   -0.0047623323    0.0054985610    0.0206579135
 C    0.0320270526   -1.1990710534    0.0085182412
 C    0.1020804047   -2.6205985820   -0.0232938139
 C    0.6278698202   -3.6173146139    1.0733268489
 C    0.0340839609   -4.5274069878   -0.0424559675
 N   -1.1214353363   -3.5453282128   -0.2210581414
 C    0.7821507031   -3.6099212999   -1.0271411546
 O    1.5015485172   -3.6269120978   -1.9665370189
 H    0.6575226877    1.8783658942   -0.6960699402
 H   -1.0508086239    1.8186055982   -0.2410463112
 H    0.1966893854    1.8619416416    1.0135359843
 H    1.7004796654   -3.6491778150    1.2870713829
 H    0.0261999595   -3.5983165286    1.9862809160
 H   -0.1130961666   -5.6040300075   -0.0472021169
 H   -1.6443087405   -3.5279561710    0.6619948229