16

 O   -0.0352831740    1.4435426778    0.0215287041
 C   -0.0090352811    0.0673536332    0.0073626332
 C    0.4062469909   -0.7510812672   -1.2517600526
 C   -0.5670421305   -1.8149365391   -0.7463905947
 C   -0.4894571193   -1.8292717306    0.7778148156
 C    0.5311570358   -0.7741777514    1.2017176707
 C   -1.3479027306   -0.7904729200    0.0670221499
 C   -2.7180959314   -0.4679870558    0.1402285804
 N   -3.8424018547   -0.1939372275    0.2003884097
 H    0.8702364281    1.7750769783    0.0136249489
 H    0.0364624392   -0.2754373384   -2.1630024398
 H    1.4636900030   -1.0169170402   -1.3581141992
 H   -0.9955519624   -2.6423330495   -1.2950362415
 H   -0.8606601364   -2.6670896430    1.3518441018
 H    1.5937464965   -1.0407521361    1.1946446621
 H    0.2561836570   -0.3170708405    2.1550849413