17

 O    0.1384895026    1.3785940951   -0.0957831980
 C    0.0354867611    0.0004185369    0.0152158393
 C    0.1896194544   -0.6867887670    1.4167755644
 O   -0.4760327849    0.1274796063    2.3893590231
 C   -1.8738976289    0.1537342313    2.1896179833
 O   -2.2268405230    0.1857969677    0.8196542054
 C   -1.3814680104   -0.6568701595    0.0214999480
 C   -0.7665334061   -1.7975857625    0.8767276872
 O   -0.1294687858   -2.7129685835    0.0114653368
 H   -0.5555304318    1.7556236801    0.4585653639
 H    0.6894204006   -0.4585068953   -0.7250374009
 H    1.1713255779   -0.9457637521    1.8185314924
 H   -2.3437388009   -0.7135708237    2.6762222930
 H   -2.2540812431    1.0717839109    2.6457269767
 H   -1.9127692415   -0.8923386426   -0.9007825168
 H   -1.4158204121   -2.3072084196    1.5959171428
 H    0.4460882320   -3.2750906124    0.5406858495