12

 N   -0.0062466053    1.3528937586    0.0445302085
 C   -0.0450507127   -0.0038557512   -0.0242470072
 N   -1.1622199366   -0.6439683974   -0.0453100592
 O   -1.0649395365   -2.0476751299   -0.1959806961
 C    0.1018366592   -2.6949307704   -0.4518417624
 N    0.1808304399   -3.9004552475   -0.7817382185
 O    1.2721649631   -1.9929193954   -0.2910341970
 C    1.2930295194   -0.6596216668   -0.0758513688
 O    2.3246515486   -0.0712767570    0.0754245909
 H    0.8748738094    1.7520921227    0.3282551694
 H   -0.8523869868    1.8373389990    0.2975448262
 H   -0.7462884617   -4.3116108048   -0.8664724759