17

 C    0.0219851708    1.4736521821    0.1195600103
 C    0.0396474346    0.0206493222    0.0440924399
 C    0.0609857929   -1.1814655291   -0.0132844495
 C    0.0457753007   -2.6486794910   -0.0863275736
 O   -1.2671187124   -3.1851220516    0.0734050628
 C    0.6896578549   -3.1182225779   -1.3228989697
 C    1.2003453776   -3.5089132701   -2.3416588900
 C    1.8051495491   -4.0381473658   -3.5633063378
 O    2.4545839240   -5.2876453219   -3.3813947049
 H    0.7388546105    1.8388597910    0.8628408590
 H    0.2797276950    1.9259880327   -0.8441214345
 H   -0.9692055792    1.8411300803    0.4067630117
 H    0.6035618446   -3.0525612816    0.7687691130
 H   -1.8085243519   -2.8210711583   -0.6366328322
 H    1.0357459683   -4.0946850123   -4.3503105180
 H    2.5767942716   -3.3506560856   -3.9273993237
 H    1.8291743588   -5.8774986632   -2.9474995827