14

 O    0.4749762301    0.1516060658   -0.0855627429
 C    0.5546538563    1.3245586113   -0.2837283275
 O    0.7475361928    2.2137583321    0.7176699365
 C    0.8761391631    3.5964037242    0.3434474350
 C    2.2912081058    3.9649140945    0.0629065744
 N    2.8743881116    4.0448128831   -1.0923678071
 C    4.1886700046    4.3756465690   -0.7957176486
 C    4.3235813571    4.4787664852    0.5478482394
 O    3.1101495301    4.2191172106    1.1134759043
 H    0.4720734347    1.8041374500   -1.2773309587
 H    0.2805889567    3.8137139325   -0.5479103897
 H    0.4856382955    4.1657757068    1.1882943594
 H    4.9296964503    4.5154077895   -1.5660655542
 H    5.1301838415    4.7111686555    1.2213685997