23

 C   -0.0575904885    1.6322355151   -0.0976935846
 C   -0.0185101793    0.1012614776   -0.0678302691
 C   -1.4003785999   -0.5629268780    0.1019986827
 C   -1.3291770083   -2.0859377652   -0.1614673982
 C   -2.6549586622   -2.7255122301   -0.5858638390
 C   -3.8322277178   -2.5853768001    0.3364221841
 C   -3.9860886890   -1.8074655108    1.4189322443
 C   -3.0786701876   -0.8232852822    2.0025426446
 C   -1.9859608611   -0.2663342274    1.4619248496
 H    0.9466480076    2.0481998479   -0.2258377488
 H   -0.6758999654    1.9913624481   -0.9281435092
 H   -0.4723883681    2.0526214743    0.8238852095
 H    0.4289824738   -0.2586412885   -1.0019967915
 H    0.6443274451   -0.2397791947    0.7390660848
 H   -2.0657147889   -0.1299021023   -0.6625169350
 H   -0.5997996343   -2.2774324979   -0.9577655285
 H   -0.9477962733   -2.5852441330    0.7363653847
 H   -2.9454444599   -2.3439194530   -1.5769967321
 H   -2.4817688596   -3.7994924932   -0.7479298302
 H   -4.6711579414   -3.2296396149    0.0769274308
 H   -4.9278006990   -1.9116483820    1.9550400234
 H   -3.3621103854   -0.4876225347    2.9981531525
 H   -1.4470882374    0.4588170952    2.0676710453