17

 C    0.0321123371    1.5191185147   -0.0239692542
 C   -0.0023243962    0.0128333319   -0.0131665349
 C   -1.1784612707   -0.6854037279    0.0076958716
 C   -2.5344768370   -0.0420229453    0.0213141430
 C   -1.1409832540   -2.1475850770    0.0148028995
 O   -2.1051278317   -2.8985855465    0.0305048227
 N    0.1538574765   -2.6689760268    0.0022838681
 N    1.3182083962   -2.0123018935   -0.0181127594
 C    1.2319847847   -0.7135429042   -0.0254371682
 H    1.0568272299    1.8950121972   -0.0712804238
 H   -0.5177267237    1.9220058091   -0.8815243379
 H   -0.4382759274    1.9322306257    0.8755049145
 H   -2.7120004447    0.5323668351   -0.8960932857
 H   -3.3013835087   -0.8128069649    0.1025693636
 H   -2.6379547409    0.6568532463    0.8591045750
 H    0.2250948683   -3.6780774024    0.0067649111
 H    2.1790283923   -0.1842153016   -0.0426551250