23

 C   -0.2832752895    1.3639240765   -0.1320292517
 O   -0.2311620228   -0.0414366892   -0.1422634743
 C    0.7934023568   -0.5433357740   -0.9748645092
 C    0.7682001892   -2.0638426792   -0.9369693667
 C    0.6244893351   -2.6172464796    0.4678525794
 O   -0.0387208523   -2.6897767886   -1.9518895095
 C    1.3885273110   -2.8424579094   -2.0400219480
 C    2.0510662054   -2.1725568276   -3.2325968149
 C    1.9090055033   -4.2515362796   -1.8179820893
 H    0.6569585511    1.8055772740    0.2363272654
 H   -0.4822222412    1.7731371671   -1.1352933356
 H   -1.0967047589    1.6566125096    0.5361731436
 H    0.6481275123   -0.1839440427   -2.0012436185
 H    1.7775874045   -0.1804090107   -0.6256648172
 H   -0.2634507798   -2.1895472709    0.9371562811
 H    0.5310843846   -3.7021388797    0.4709437403
 H    1.4903030672   -2.3378314189    1.0790210055
 H    1.6349649106   -1.1901245487   -3.4527381127
 H    3.1283534804   -2.0651612199   -3.0639575585
 H    1.9182849125   -2.7971204234   -4.1228159021
 H    1.8104319716   -4.8283473496   -2.7442028144
 H    2.9714848721   -4.2341355641   -1.5509800449
 H    1.3626192671   -4.7806879015   -1.0383976379