16

 N   -0.0329160741    1.2912116737   -0.0049597832
 C    0.0109314537   -0.0764834674    0.1922077019
 O    1.0350522056   -0.7085985124    0.3589210804
 N   -1.2246109238   -0.6896602246    0.1619094018
 C   -2.5154047654   -0.3003397354   -0.4214913788
 C   -2.9252938141   -1.7973048940   -0.3846302295
 C   -1.4442826658   -2.1275353752    0.0141017923
 C   -0.6778953848   -2.7831921728   -1.0532821679
 N   -0.1387258054   -3.3281989078   -1.9177679591
 H    0.8296532965    1.7563343435    0.2326939095
 H   -0.8703347474    1.7920410333    0.2485573328
 H   -3.1106608017    0.3743818151    0.2031846923
 H   -2.4327869797    0.1219684752   -1.4299963435
 H   -3.6335349143   -2.0418728484    0.4063257862
 H   -3.2570847150   -2.2275982431   -1.3273843886
 H   -1.3121949242   -2.6956757097    0.9395782335