20

 C   -0.5700608600    0.7592018520    0.1115183116
 O    0.7683948578    0.2907188650    0.0479822219
 C    1.1489310794   -0.5570490926    1.1029508184
 C    0.7408859838   -2.0319389264    0.9233908808
 C    1.1049388589   -2.5618743791   -0.4601913079
 C    1.1921065074   -2.9234619285    2.1306180766
 N   -0.2248960318   -3.1480189654    2.4160281479
 C   -0.7069887663   -2.4006154497    1.3749090361
 O   -1.8241674622   -2.1655029721    0.9898067954
 H   -0.7519561666    1.3030560351    1.0515644977
 H   -0.6967960948    1.4520832839   -0.7239127292
 H   -1.3002952548   -0.0536560846    0.0319374774
 H    2.2455008738   -0.5168943730    1.1363544947
 H    0.7733713461   -0.1795155273    2.0687382667
 H    2.1814749924   -2.4667475375   -0.6403210987
 H    0.8298653963   -3.6156689557   -0.5670067184
 H    0.5859821718   -1.9883236285   -1.2307955215
 H    1.7446568390   -3.8254402262    1.8485380501
 H    1.7309024862   -2.3964190890    2.9260903708
 H   -0.6953175863   -3.7101345604    3.1095880894