19

 C   -0.0649559424    1.4040182359   -0.1366923132
 N   -0.0288644467   -0.0318997580   -0.0068218872
 C   -1.2343143395   -0.8465195497   -0.0211065022
 C   -0.7006900495   -2.2696869804   -0.0091389428
 N    0.1236259964   -2.5598467235   -1.1982074069
 C    0.7763943914   -2.2115103165    0.0966192172
 C    1.6783961246   -3.1741887592    0.8120029739
 C    1.1410083005   -0.7382740126    0.1003976157
 O    2.2576792288   -0.2701583568    0.1999082946
 H    0.9634394660    1.7656389579   -0.0824773980
 H   -0.5054628747    1.7073530098   -1.0949892584
 H   -0.6501888197    1.8610602189    0.6714098387
 H   -1.8576101692   -0.6433575546    0.8617225646
 H   -1.8355578914   -0.6467743033   -0.9177618606
 H   -1.2858784549   -3.0590386127    0.4487549350
 H    0.1838613674   -3.5708876232   -1.3150093153
 H    1.2938357981   -4.1971354643    0.7472893558
 H    2.6804395115   -3.1450220265    0.3738852141
 H    1.7752089034   -2.9103471513    1.8697813349