17

 C   -0.1137003306    1.4728304086    0.0572252648
 C    1.2321476608    0.7591161273   -0.0236547310
 C   -0.0336312734   -0.0155162702    0.0879667346
 C   -0.4442685889   -1.0464724955    1.1278128111
 C   -1.9886898134   -1.0840353925    0.9405262659
 C   -1.6885642760   -1.6053947031   -0.4649335159
 C   -0.3393719627   -2.0705987795   -0.0725587701
 N   -0.4570418403   -0.9165188796   -1.0118657694
 H   -0.3613837409    2.0012051207    0.9727194215
 H   -0.4882052579    1.9366466950   -0.8490400095
 H    1.7382307280    0.7511378199   -0.9829873453
 H    1.8897094215    0.8083470718    0.8382727846
 H    0.0134414833   -1.1102840688    2.1130215612
 H   -2.4570654491   -1.8635214411    1.5472190993
 H   -2.5312269477   -0.1398379949    1.0543981892
 H   -2.3685814344   -2.0112262555   -1.2022030996
 H    0.2388820516   -2.9628215828   -0.2711938815