22

 C   -0.0831678072    1.5724862329   -0.0408777821
 C    0.0524702998    0.0756304158    0.1422520089
 N    1.2252830517   -0.7330067923   -0.2673714607
 C    2.4448094422    0.0686028139    0.0974201217
 C    2.1066220396    0.0275384179    1.6040420987
 C    3.0484611578   -0.8601414500    2.4120828319
 O    2.0276283607    1.3184835947    2.1934225540
 C    0.7815599994   -0.6651620236    1.2020117160
 C    0.1683174130   -1.8356787775    1.9208059809
 H    0.7098551704    2.1398933726    0.4418712155
 H   -0.1099849828    1.8203977389   -1.1083685979
 H   -1.0331724581    1.9006526833    0.3947625485
 H   -0.8484393076   -0.4538283818   -0.1682964166
 H    3.3486324485   -0.4842041730   -0.1670293174
 H    2.4908011468    1.0638530764   -0.3509553137
 H    4.0245832100   -0.3728472302    2.4937293069
 H    2.6628979497   -1.0265303860    3.4257749752
 H    3.1858498352   -1.8384936362    1.9431709570
 H    1.7758058608    1.2143437747    3.1176072342
 H   -0.3494778584   -1.5084799607    2.8311302251
 H   -0.5676444925   -2.3312462685    1.2812121718
 H    0.9152095610   -2.5814297812    2.2095603221