16

 O   -0.0716610044    0.0842432120   -0.3017184608
 C    0.0034135063    1.2741961844   -0.0907044817
 N    1.1501369178    1.9220789840    0.2519294358
 C    2.5437950166    1.4536690392    0.1292724383
 C    2.9876088873    2.9189030374    0.0105933389
 C    2.2337717254    3.6304111247   -1.1006688499
 C    1.4933512083    3.3273091019    0.1542391488
 C    4.1296896090    3.5088891287    0.7194790029
 O    4.9261892236    2.8711380944    1.3651505748
 H   -0.8654373291    1.9636330931   -0.1177723756
 H    2.9096527344    0.9765392721    1.0408669840
 H    2.7251943205    0.8051562819   -0.7320062844
 H    2.5107828769    4.6718894281   -1.2379642233
 H    2.0099120094    3.0886355742   -2.0149750624
 H    1.0556924806    4.0713696239    0.8091705460
 H    4.2112999175    4.6157484600    0.6230646887