20

 C   -0.0286424443    1.5596600907    0.0408904708
 C    0.0019925156    0.0231722302   -0.0092916531
 C    0.6153808601   -0.4557389684   -1.3332246768
 C    0.7217861120   -0.5349556161    1.2288609507
 O    0.0722960995   -0.0248814802    2.3694535112
 C    1.0038820602   -2.0841710502    1.2602800256
 N    2.4279801490   -1.7538145286    1.1649060672
 C    2.2828140070   -0.3911997765    1.2163684553
 O    3.0688562311    0.5195162631    1.2578085881
 H    0.9886217486    1.9638756669    0.0349344290
 H   -0.5600222030    1.9556235230   -0.8302332391
 H   -0.5282706459    1.9127687040    0.9438704490
 H   -1.0313039304   -0.3467715598    0.0515616708
 H    1.6401869852   -0.0871994255   -1.4495359368
 H    0.6336110347   -1.5453566009   -1.4264655555
 H    0.0301561555   -0.0672321427   -2.1719279692
 H    0.6810568941   -0.0454996595    3.1149953026
 H    0.7101426144   -2.5422899355    2.2099947515
 H    0.6168926039   -2.6763128997    0.4269860951
 H    3.2541188826   -2.3327089843    1.1405880737