23

 C    0.0181852299    1.6516818974   -0.0634628485
 C   -0.0071542719    0.1128652810   -0.0175193516
 C    0.6581549815   -0.4354429903    1.1602963513
 C    1.2048228802   -0.8642126625    2.1442054834
 C    1.8825335428   -1.3989054062    3.3195878079
 C    2.0111865394   -2.9329956553    3.3095762038
 C    2.9051892722   -3.4261919788    4.4506070521
 O    0.6935399836   -3.4482589556    3.4170149157
 C    0.5318198975   -4.7598552895    2.9333504692
 H    1.0466116932    2.0230840651   -0.0763843971
 H   -0.4918849980    2.0166883470   -0.9601786018
 H   -0.4805644210    2.0740961900    0.8131112566
 H   -1.0479236192   -0.2353525286   -0.0446895189
 H    0.4655724289   -0.2859231482   -0.9246585020
 H    2.8864669886   -0.9640206662    3.4032976697
 H    1.3410949403   -1.1161796373    4.2316805791
 H    2.4451228240   -3.2395393744    2.3442336628
 H    2.9675630632   -4.5179137734    4.4613743737
 H    3.9225996175   -3.0364923665    4.3434582185
 H    2.5058284538   -3.0982327474    5.4157649132
 H   -0.5305102502   -5.0034809115    3.0157106048
 H    0.8324514822   -4.8427287188    1.8773233790
 H    1.1023741718   -5.5018213400    3.5123437290