15

 C   -0.0367812248    1.5257075826    0.0014194841
 C   -0.0099309488    0.0211933277   -0.0150130940
 C   -0.0264512756   -0.7096869589   -1.2030786374
 C    0.0002798640   -2.0976326572   -1.1651523289
 C    0.0434186415   -2.7308119304    0.0758382132
 N    0.0602192346   -2.0690706455    1.2295364478
 C    0.0339735728   -0.7310308244    1.1730069545
 C    0.0533348988   -0.0413057214    2.4385371624
 N    0.0670721022    0.5555073231    3.4296913180
 H    0.8512452158    1.9328750696    0.4959194810
 H   -0.0778639770    1.9256724405   -1.0142297036
 H   -0.9035800427    1.9012478911    0.5548947889
 H   -0.0603011737   -0.1845498142   -2.1525059870
 H   -0.0120198975   -2.6826254570   -2.0778781453
 H    0.0652723404   -3.8150184556    0.1455372963