17

 C   -0.0736310874    1.4148793627   -0.0026367946
 N   -0.0228741143   -0.0345130892    0.0616225961
 N   -0.0405285699   -0.7383816387   -1.0764930939
 C    0.0161348439   -2.0303948770   -0.7156220997
 C    0.0142534457   -3.1052874414   -1.7568386857
 C    0.0708510060   -2.1488059042    0.6814802596
 C    0.0444597128   -0.8457035114    1.1621666724
 C    0.0779584431   -0.3559946135    2.5353586114
 O    0.1375065031   -1.0758354866    3.5079713646
 H    0.8202650102    1.8603949083    0.4432862793
 H   -0.1215107243    1.6808489607   -1.0576930241
 H   -0.9599042754    1.8009240442    0.5090811676
 H    0.9174607344   -3.7214532974   -1.6954450903
 H   -0.8445611591   -3.7742942862   -1.6378276118
 H   -0.0318357417   -2.6588592106   -2.7521775360
 H    0.1228146924   -3.0407350280    1.2844210148
 H    0.0445350405    0.7503484981    2.6460559603