16

 C    0.1457155096    1.3427911676   -0.3689556479
 C   -0.1058530911   -0.1026121966    0.1150645624
 C    0.6667255290   -0.4104130238    1.4074482513
 O    2.0656402915   -0.2445207022    1.2495671168
 C   -1.5888741106   -0.3208956420    0.3069362968
 O   -2.1600233119   -0.3047625007    1.3745445147
 C   -2.4413240194   -0.5796125559   -0.9468544912
 O   -1.9853389654   -0.7079359978   -2.0523971812
 H    1.2234345862    1.5064673865   -0.4333299327
 H   -0.3002678742    1.5189456710   -1.3504429635
 H   -0.2675670462    2.0663118718    0.3414335095
 H    0.2204058136   -0.7812917087   -0.6847105802
 H    0.3628251400    0.2880531187    2.1917844654
 H    0.4167624123   -1.4204604295    1.7626869874
 H    2.3862620701   -0.9423323047    0.6691053771
 H   -3.5252106033   -0.6557459035   -0.7164716846