19

 C   -0.0405873414    1.5684313716   -0.0390277860
 C    1.4750034817    1.8818151812    0.0267317676
 C    2.0683462725    1.5146905720    1.4097397185
 C    1.9460717196   -0.0477832760    1.3881129438
 C    0.7570706437   -0.5716583283    2.1591981414
 C   -0.3423951365   -0.5436415083    1.4039018443
 C   -0.0306917221    0.0025920552    0.0301430106
 C    1.5085462379   -0.2470735108   -0.1010653430
 O    2.0274048143    0.8605524923   -0.8152687898
 H   -0.6138780631    2.0251987843    0.7711425743
 H   -0.4440510177    1.9192772890   -0.9927041192
 H    1.7612141573    2.8633664841   -0.3534876133
 H    3.1147915449    1.8285880428    1.4521063785
 H    1.5335847850    1.9704724730    2.2463804081
 H    2.8916713011   -0.5308176599    1.6423118389
 H    0.8096273980   -0.8791136462    3.1974753636
 H   -1.3405893040   -0.8243211493    1.7203472829
 H   -0.6232633131   -0.4412489153   -0.7723296978
 H    1.8079695820   -1.1827472513   -0.5716398334