23

 C    0.0638646794    1.6165218521    0.0031476809
 C    0.0429863312    0.0865877755    0.0085794951
 C    0.7150413406   -0.5252720222    1.2381597329
 C    0.6175811561   -2.0550495672    1.2734037336
 O    1.2981760495   -2.6390588793    0.1800455692
 O    2.1040031120   -0.1672205760    1.1995387342
 C    2.7351020156    0.0016029075    2.4608187198
 C    4.1572420831    0.4624672264    2.1779628666
 O    4.1771397285    1.6623753828    1.4327103814
 H    1.0868242873    1.9964104658    0.0714123488
 H   -0.3837695826    2.0129239932   -0.9129197724
 H   -0.4977822644    2.0248622182    0.8510233730
 H   -0.9921140271   -0.2742183773   -0.0246077925
 H    0.5370144161   -0.3120110311   -0.8835367682
 H    0.2587653462   -0.1117755547    2.1514445656
 H    1.0126503466   -2.4271833229    2.2332111819
 H   -0.4301406029   -2.3679540492    1.2096383912
 H    2.1562273221   -2.1978234435    0.1454259520
 H    2.2005024897    0.7655092604    3.0447304706
 H    2.7447750601   -0.9341764331    3.0403507786
 H    4.6742578788    0.6580668382    3.1230471910
 H    4.7001849209   -0.3443486175    1.6590648174
 H    3.6107456734    1.5056890737    0.6684220093