19

 C   -0.0082680695    1.5254902311    0.0871475908
 C   -0.0407541600    0.0248366445    0.0258257913
 C    1.1510529946   -0.8067033529   -0.3539274867
 C    0.5781528069   -0.9921962268    1.0423268131
 C    1.3241357268   -0.7075023121    2.2215588320
 C    1.9449449702   -0.4651877722    3.2248739116
 C   -0.6884127893   -1.8203015892    0.9702378546
 C   -1.8904025017   -0.9981452256    1.3481462228
 C   -1.2930852124   -0.8240148226   -0.0247952517
 H    0.9591341013    1.8838103666    0.4524840215
 H   -0.1747195949    1.9636661622   -0.9041878396
 H   -0.7841739446    1.9105355709    0.7569863730
 H    1.0560704541   -1.6173511441   -1.0718675978
 H    2.0996405965   -0.2797049905   -0.3929801009
 H    2.4943605516   -0.2594171170    4.1094295807
 H   -0.7159109755   -2.9029993976    0.9247437791
 H   -2.8326453460   -1.5372178580    1.3824562521
 H   -1.7974867430   -0.2123875151    2.0926329795
 H   -1.8502492053   -1.0560792818   -0.9257646056