20

 C   -0.0766679626    1.1263082449    0.6020643037
 O   -0.2255788629    0.1828712874   -0.4414721026
 C   -1.3877816427   -0.5790108623   -0.3376165589
 C   -1.6169172561   -1.5759793652   -1.5142055649
 C   -1.7402896051   -2.6958201043   -0.4770918610
 N   -0.4298906259   -2.7534727401    0.2087771103
 C   -1.4553384191   -1.7668911862    0.6574394327
 C   -1.9417671651   -1.7672012705    2.0710696709
 O   -0.9942072566   -1.2254243032    2.9870275203
 H    0.8790972449    1.6316362728    0.4454128645
 H   -0.8831050782    1.8772028083    0.5800597045
 H   -0.0817780129    0.6461189846    1.5895310025
 H   -2.2693677681    0.0654925064   -0.1850305483
 H   -2.5255274229   -1.3713497438   -2.0828496755
 H   -0.7626997992   -1.6791134222   -2.1854558672
 H   -2.3919948750   -3.5607815016   -0.5011394357
 H   -0.4773526429   -3.5387448365    0.8612128604
 H   -2.8352253448   -1.1411210386    2.1700669006
 H   -2.2267236103   -2.7935350365    2.3590218122
 H   -0.1533899844   -1.6682086635    2.8268463916