14

 N    0.1159487466    1.3243009903    0.2121431353
 C   -0.0576866335   -0.0299339362    0.0704446719
 C   -1.1794928896   -0.8158451685   -0.0035855034
 C   -0.7056514278   -2.1609403080   -0.0646625929
 N   -1.4769863958   -3.2920411424   -0.2160858528
 C    0.6720756152   -2.0991146290   -0.0176247291
 O    1.0659458567   -0.7595291414    0.0597636669
 C    1.6404542687   -3.1022879713   -0.0317186998
 N    2.4040539475   -3.9804084211   -0.0426927581
 H    1.0240540428    1.6570601674   -0.0799530454
 H   -0.6419066451    1.8897844907   -0.1388594852
 H   -2.2043635809   -0.4822958360   -0.0220348345
 H   -2.3979752016   -3.2449342843    0.1924950881
 H   -1.0076890434   -4.1618489203   -0.0072078909