21

 C   -0.3563680824    1.5585346505    0.3456213861
 C   -0.1351613269    0.0973645471   -0.0231832368
 C    1.0271288101   -0.5289642895    0.7496418964
 O   -1.3688522693   -0.5818717309    0.2734909394
 C   -1.5851941279   -1.7585246638   -0.4384885641
 C   -2.9107168542   -2.5048311179   -0.1202706392
 C   -3.1577416559   -2.7379684553   -1.6414628149
 C   -2.0823477017   -1.6676569648   -1.9059306956
 O   -1.8358041406   -0.9345905653   -2.8197038227
 H    0.5418392771    2.1483872734    0.1400530179
 H   -1.1873028829    1.9744107066   -0.2295143201
 H   -0.5939118904    1.6491217726    1.4105797780
 H    0.0529218720    0.0246176474   -1.1020962933
 H    0.8511233033   -0.4521581848    1.8273009093
 H    1.1602271264   -1.5861345889    0.4996030929
 H    1.9641029780   -0.0147418232    0.5131582644
 H   -0.7276098005   -2.4506193831   -0.3866468279
 H   -2.8303998756   -3.3878920285    0.5133407217
 H   -3.6347738643   -1.8094480390    0.3088987585
 H   -2.8416857347   -3.7268170693   -1.9886058900
 H   -4.1511044195   -2.5276071133   -2.0426349098