22

 C   -0.4973289822    1.3159627528    0.0156928250
 C    0.0215080254   -0.0975164408    0.0393618428
 N   -0.5228755401   -1.0782354514    1.0069212771
 C    0.8956925254   -0.6469029287    1.1038290254
 C    1.8559492034   -1.6584454692    0.5101235528
 C    1.1819877590   -2.0449446296   -0.8249226097
 C    0.4006635630   -0.7842160468   -1.2789428444
 C   -0.7923586934   -1.1051448241   -2.1768867631
 O    1.2854920576    0.1468491789   -1.9201433116
 H    0.1698618712    1.9585338091   -0.5635021974
 H   -1.4936821597    1.3671103243   -0.4393145926
 H   -0.5736502523    1.7193666434    1.0310111207
 H   -1.0682462412   -0.5736478991    1.7024368384
 H    1.1944489212   -0.0388471629    1.9524920556
 H    2.8225916203   -1.1735562303    0.3362008470
 H    2.0230672985   -2.5240481362    1.1587591648
 H    1.8999663442   -2.3523146265   -1.5915576600
 H    0.4852965969   -2.8706948125   -0.6672229475
 H   -1.5250222077   -1.7095792606   -1.6350270238
 H   -1.2763258222   -0.1861448070   -2.5211173037
 H   -0.4743871655   -1.6711957119   -3.0610850740
 H    1.5309686381   -0.2268927508   -2.7726203118