12

 O    0.1128999038    1.2890333130    0.0865654724
 C    0.0713164060   -0.0401172354    0.0521832472
 N    0.0782052870   -0.6236834792   -1.1484309972
 C    0.0349027036   -1.9606212722   -1.1117511213
 N   -0.0123250413   -2.7008814126    0.0060404149
 C   -0.0133377982   -1.9842501316    1.1297621251
 N    0.0266485337   -0.6587768246    1.2321158028
 C    0.0394383887   -2.6528217037   -2.3642773567
 C    0.0431749404   -3.2356707436   -3.4153527134
 H    0.1419734565    1.5901065004   -0.8331522901
 H   -0.0508451966   -2.5419318201    2.0627839978
 H    0.0463628663   -3.7534091205   -4.3433957216