15

 O   -0.3109649076    1.3144913316    0.0721647773
 C    0.0404482455   -0.0488930161   -0.0819722980
 C    0.9218278215   -0.3032319199   -1.3216540256
 C    0.1992134825    0.0999522463   -2.5842272613
 C    0.3349000088   -0.6646612904   -3.8286993678
 O   -0.8314561097   -0.7948537008   -3.0132201452
 C    0.6912161530   -0.5721162597    1.1356488074
 N    1.2331486589   -0.9537381387    2.0822555676
 H    0.4831117525    1.8081989712    0.3085071381
 H   -0.9072688547   -0.5807366184   -0.2185434741
 H    1.8575599966    0.2611562691   -1.2201670250
 H    1.1806864530   -1.3660237612   -1.3659247523
 H   -0.0736281347    1.1524776537   -2.6491095178
 H    0.1831663528   -0.1698846122   -4.7865407749
 H    0.9869287116   -1.5368971545   -3.8544569584