15

 C   -0.0163311973   -1.1960643668   -0.0088950248
 C    0.0001506549    0.0047332675    0.0344614763
 C    0.0115594486    1.4418634109    0.0747546019
 C   -1.0764302552    2.0693818994   -0.6505063332
 N   -1.9612667356    2.5642561077   -1.2044418914
 C    0.5270833723    2.2134323647    1.2590744954
 C    1.6240774447    1.4497670687    1.9903778609
 C    2.3647845542    1.4307168298    0.6258318652
 N    1.2797903206    2.2500831200   -0.0364152015
 H   -0.0417312993   -2.2575610929   -0.0510850362
 H   -0.0347968332    3.0667546182    1.6252229203
 H    2.1274251944    2.0584291034    2.7426031311
 H    1.3381183904    0.4918869114    2.4293618612
 H    3.2867282140    2.0128312318    0.6135343435
 H    2.5344116566    0.4606529462    0.1555310513