20

 C   -0.0241118585    1.4983071811   -0.0089267102
 C    0.0034026090   -0.0011624962    0.0126885359
 C   -0.0105828766   -0.8327795266   -1.0915157347
 N    0.0589269012   -2.1247148468   -0.6384705048
 C   -0.0151128793   -3.4435211103   -1.2404540766
 C    0.4404098142   -4.3521973963   -0.0723694302
 C    0.0947111490   -3.5586979693    1.2202468194
 C    0.0968958629   -2.1409164974    0.7313268642
 C    0.0674013463   -0.8380458265    1.1725048993
 H    0.8777737111    1.9308329272    0.4411527436
 H   -0.0933581288    1.8767487682   -1.0332951121
 H   -0.8798423432    1.8981549066    0.5483171187
 H   -0.0439236642   -0.6003983353   -2.1444298083
 H   -1.0414768600   -3.6712221192   -1.5590864804
 H    0.6341279911   -3.5223469427   -2.1177698749
 H   -0.0312668927   -5.3365453960   -0.1089267429
 H    1.5227674136   -4.4986981775   -0.1321807783
 H   -0.8916712913   -3.8490824005    1.6064217185
 H    0.8158710429   -3.7466468407    2.0208493353
 H    0.0972120232   -0.5051110118    2.1995080585