21

 C    0.1219523564    1.3960054272   -0.0285234735
 O    0.0386222266   -0.0045278263    0.0462482143
 C   -1.2852418820   -0.4853388236   -0.1034254140
 C   -1.2450407785   -1.9960897016    0.0382477153
 C   -1.0187355252   -2.6425187776    1.4423450820
 C   -2.2651698577   -3.5139400218    1.2323245814
 C   -3.4765261772   -2.6583844070    1.0346387599
 O   -3.6602965897   -1.4213901691    1.6696210604
 C   -2.5439829772   -2.8002415453   -0.1216144229
 H    1.1714208055    1.6724350423    0.1039660273
 H   -0.2236751774    1.7768386701   -1.0036570224
 H   -0.4760484332    1.8862502404    0.7566560490
 H   -1.9498056089   -0.0420091840    0.6500590280
 H   -1.6820952664   -0.2109438093   -1.0977667456
 H   -0.4908540503   -2.3785185662   -0.6561478362
 H   -0.0910026812   -3.2130462004    1.5014282495
 H   -1.0660387249   -1.9575092873    2.2937438328
 H   -2.3425371570   -4.5670705770    1.4775567926
 H   -4.3992668331   -3.2265941275    0.9060220062
 H   -3.7958713591   -1.5884274303    2.6086465835
 H   -2.8881030295   -3.2207555556   -1.0601851676