18

 N   -0.0528075201    1.3183305248    0.0168556270
 C   -0.0639072069    0.0883831768   -0.5581706313
 O    0.8638995997   -0.2818297441   -1.2805182669
 C   -1.2692039537   -0.7414989227   -0.2930112157
 C   -1.5749827218   -1.8894543028   -1.2574004590
 O   -0.7146516228   -2.1698224284   -2.3136843839
 C   -1.1644489598   -2.2214616221    0.1396294943
 C    0.1625927307   -2.9342787839    0.3472971383
 O    0.1369605477   -4.2178419413   -0.2561776522
 H    0.7523173397    1.9049935890   -0.1309940991
 H   -0.7562356676    1.6113932944    0.6711795041
 H   -2.1200065852   -0.1996691434    0.1078552993
 H   -2.6159657025   -2.0176019162   -1.5400945981
 H    0.0571939261   -1.5746051052   -2.2113741175
 H   -1.9601682027   -2.5303978250    0.8113642439
 H    0.9913610208   -2.3288322401   -0.0358522702
 H    0.3382516920   -3.0961184045    1.4153849611
 H    0.0100995366   -4.0545765252   -1.2000289541