16

 O   -0.3970130746    1.5725963674   -0.9897524492
 C   -0.0372716772    0.5241198187   -0.1025768273
 C   -1.2478567787   -0.3265395464    0.2108683807
 N   -1.6648627975   -1.2346169942   -0.8530085490
 C   -1.2030451906   -1.8190639903    0.4170550430
 C    0.0810967032   -2.5978678824    0.3936554156
 O    0.9347465236   -2.4806540920   -0.4584768856
 C    0.2414536781   -3.5117212645    1.5142594642
 C    0.3595394159   -4.2700637545    2.4418969327
 H   -0.6468611629    1.1505598487   -1.8195543491
 H    0.7614807121   -0.1012080338   -0.5144301665
 H    0.3294457980    1.0046935629    0.8102934027
 H   -2.0292942925    0.1897422544    0.7672034548
 H   -2.6776631841   -1.3022328050   -0.9066909238
 H   -1.9468762080   -2.2200236399    1.1012102273
 H    0.4833938751   -4.9434015391    3.2552957894