17

 C   -0.0681139172    1.4404123217    0.1306568277
 C    1.2788402638    0.7563426984    0.0249757097
 C    2.0479035868    0.4266538325    1.3175765444
 C    1.0971679490   -0.4837187212    2.0458569979
 C    0.8697580747   -1.1363245178    3.2415284059
 C   -0.3779795106   -1.7765365273    3.0484029449
 N   -0.9013085929   -1.5318639469    1.8427171368
 N    0.0273348219   -0.7602249697    1.2584214262
 C    0.0034814828   -0.0606672765    0.0075240571
 H   -0.3809268965    1.8480056844    1.0863548250
 H   -0.4048341021    1.9979656123   -0.7367270520
 H    1.8474492535    0.8959306696   -0.8857889953
 H    2.9952512680   -0.0746135006    1.0871158319
 H    2.2942241374    1.3252081786    1.8934265528
 H    1.5007149329   -1.1651087300    4.1147512352
 H   -0.9129314303   -2.4117843206    3.7397599217
 H   -0.3801130010   -0.6013080168   -0.8475822198