17

 O    0.0248191224    1.4060074165    0.1118784320
 C   -0.0727692526    0.0201998482    0.0408459999
 C   -0.5333264755   -0.7795896638    1.2407775511
 O   -1.0888174989   -0.1012540857    2.3436477310
 C   -2.2527024825    0.5506924993    1.9037082822
 C   -3.4719592500   -0.2812187044    1.5352163466
 C   -2.5359235263    0.2543188653    0.4712138175
 O   -2.9159437570    1.3053822733   -0.3777846956
 C   -1.4289991288   -0.6631700745    0.0234239100
 H   -0.7346706706    1.7804577608   -0.3518761597
 H    0.7046503854   -0.4522209055   -0.5594247375
 H   -0.0223485622   -1.6920061230    1.5247679537
 H   -2.3861722434    1.5422186798    2.3183342426
 H   -3.4751177528   -1.3455038256    1.7441083620
 H   -4.4264616793    0.2239335860    1.6391805037
 H   -3.4472447479    0.9397960219   -1.0944631837
 H   -1.6380226200   -1.4886539685   -0.6509756457