14

 O    0.0704959506   -0.1111348948    0.1443571103
 C   -0.0084694894    1.0887190391    0.0500569532
 C    1.2096502104    1.9250997527   -0.0158343764
 N    2.1406500925    2.6082239494   -0.0792170185
 C   -1.3079222311    1.8621573157   -0.0113982769
 C   -1.6612178399    2.3502469836   -1.4546659995
 C   -2.6715198012    1.1754326046   -1.4744610513
 N   -2.5129968512    1.0295408736   -0.0023159868
 H   -1.2687856493    2.6446516642    0.7593170425
 H   -2.1263961147    3.3358638139   -1.4495754419
 H   -0.8583956543    2.3346025901   -2.1927753152
 H   -3.6928913148    1.4101393431   -1.7869806732
 H   -2.3106860510    0.3173048386   -2.0539237429
 H   -2.3400427865    0.0809176663    0.3173557966