13

 C   -0.2025047460    1.5157698181    0.0684522914
 C    0.0272118507    0.0363253083   -0.0006493128
 N    0.0833424912   -0.4724992224   -1.1897887040
 O    0.3011185335   -1.8754033864   -1.2566232732
 C    0.4385144997   -2.6205347920   -0.1554220750
 O    0.6261620838   -3.8152163303   -0.1904697425
 C    0.3492786930   -1.8820497916    1.1328799247
 O    0.4885967067   -2.6379103578    2.2055238793
 N    0.1532833047   -0.6168336234    1.2141819398
 H    0.6260269026    1.9907206417    0.6028558655
 H   -0.2887493191    1.9401996512   -0.9315600364
 H   -1.1148962974    1.7187785439    0.6376187923
 H    0.6236112066   -3.5467410895    1.8740385610