20

 C   -0.0368725197    1.5560434120   -0.1671844028
 C    0.0079269141    0.0389472240    0.0294029360
 C    0.7252579237   -0.4516616728    1.3201325595
 C    0.0272228587    0.0761342501    2.5940303784
 C    0.7279131364   -2.0073340244    1.3204205970
 C    1.4473866826   -2.6319199286    2.5005571660
 O    0.9611608295   -3.4673650316    3.2181153934
 C    2.1184742196    0.0285868543    1.2971987961
 N    3.2106436545    0.4074201600    1.2692232378
 H    0.9687951382    1.9871888413   -0.1667387084
 H   -0.5017392054    1.7932524559   -1.1283342530
 H   -0.6216083301    2.0551430726    0.6107289555
 H   -1.0104628245   -0.3663527006    0.0573633265
 H    0.5054325519   -0.4236406042   -0.8303924307
 H   -1.0156746022   -0.2553856796    2.6002713241
 H    0.5099889797   -0.3044153926    3.4979438349
 H    0.0474831602    1.1664738184    2.6368932244
 H   -0.3024830091   -2.3733361924    1.3119998866
 H    1.2259498812   -2.3603051468    0.4073774003
 H    2.4872666907   -2.2703180549    2.6585732385