17

 N   -0.0733734923    1.2505437129    0.1747102191
 C   -0.0145091785    0.0087308439   -0.0230594319
 O    1.1534005788   -0.7208216064   -0.1874059053
 C    0.7543650188   -2.0337893224   -0.5671773050
 C   -0.0082346292   -2.9329338506    0.4779815678
 C   -0.9072416025   -1.9096862394    1.1836899221
 C   -1.1483742461   -0.9860093051   -0.0657021443
 C   -0.6631661382   -1.9864293214   -1.1607511046
 N   -0.9494851012   -3.3575755859   -0.6243667746
 H    0.8637790893    1.6571559788    0.1954648238
 H    1.5466315251   -2.5213524269   -1.1336991097
 H    0.4727093381   -3.7112098225    1.0687120595
 H   -1.8275411920   -2.3829595578    1.5279403534
 H   -0.4312609547   -1.3811095233    2.0113453892
 H   -2.1335634740   -0.5401149082   -0.1603882031
 H   -0.8882316055   -1.7644564319   -2.2028433273
 H   -0.4561582060   -4.0193080838   -1.2263180792