15

 O   -0.2241510853    0.0356209229    0.3369427592
 C   -0.1774847878    1.1967098986    0.0758340974
 C   -1.1986639887    2.3220335904   -0.2124298555
 C    0.0053382390    3.2750952712   -0.0579980218
 C    0.4518149565    3.7139586282    1.3625240872
 C    1.5415041118    2.5884520232    1.2931032931
 C    1.6189559830    1.6502154068    2.4043786807
 N    1.6853856727    0.9524625025    3.3230515211
 N    0.9432173694    2.0923883177    0.0028074677
 H   -1.6485501050    2.2958014722   -1.2078437447
 H   -1.9906143510    2.3931229429    0.5364185980
 H    0.1854158138    3.9897859509   -0.8618042905
 H    0.8434911856    4.7270474082    1.4574970284
 H   -0.2956097467    3.5418913428    2.1396133065
 H    2.5437784427    2.9823773714    1.1023016532