21

 C    0.7586728644    0.6128208343   -1.7182229761
 C    1.2389884374   -0.7058848283   -1.1207421569
 C    2.7420293528   -1.1389199077   -1.2443680380
 C    2.7742918374   -1.4062989523    0.2596498887
 O    3.4270209117   -2.5404698961    0.7170614671
 C    2.4910785343   -0.1870592058    1.0746857869
 C    3.0401490032    1.2063963695    0.8442583514
 O    4.2978339908    1.3750628241    1.4904245942
 C    1.3214275891   -0.9036920122    0.3994858112
 H    1.3379976298    1.4701057844   -1.3657918465
 H    0.8271747653    0.5919158891   -2.8118150686
 H   -0.2897583415    0.7946222352   -1.4570067509
 H    0.6204610200   -1.5118138628   -1.5303959389
 H    2.8673170002   -2.0584938960   -1.8193188223
 H    3.4495150698   -0.3940693769   -1.6248310595
 H    3.5766962179   -2.4520466686    1.6633281886
 H    2.4877179800   -0.4203287946    2.1421826522
 H    3.1185448401    1.4368057417   -0.2258140653
 H    2.3773157835    1.9561414687    1.2898624939
 H    4.9074941816    0.7410218526    1.0984805652
 H    0.5086720821   -1.2784940585    1.0123952634