22

 C    0.4678725133    0.2381856525    0.7562739626
 C   -0.4459825531    0.4071055825   -0.4381799771
 O   -1.2977791931    1.2634775677   -0.4933296585
 C   -0.2311375007   -0.5338338018   -1.6310356294
 N    0.3075699473   -1.8237639441   -1.2352242577
 C   -0.6189181830   -2.9497924359   -1.1105478588
 C    0.4050116948   -2.9297145812   -2.1986689437
 C   -0.0507344377   -2.7491961152   -3.6351740767
 C    1.6635438031   -3.7619033865   -2.0459743645
 H    0.2802133336   -0.7287317917    1.2335362481
 H    1.5158372776    0.2192133762    0.4401594729
 H    0.2940265365    1.0481133191    1.4656607438
 H   -1.1811007568   -0.5686620866   -2.1829240445
 H    0.5023502987   -0.0360571606   -2.2824388884
 H   -0.4896144275   -3.5817376684   -0.2348154215
 H   -1.6569272377   -2.7838870497   -1.3979489643
 H   -0.9862743059   -2.1917842518   -3.7139040838
 H    0.7106305191   -2.2241133577   -4.2239046243
 H   -0.2072532879   -3.7270579956   -4.1024857009
 H    1.5079582258   -4.7780623834   -2.4254939691
 H    2.4938778215   -3.3184310917   -2.6076203855
 H    1.9601093623   -3.8218943361   -0.9962895087