22

 C   -0.1586766881    1.4218361943   -0.0885608123
 C    0.0845462146   -0.0947821863   -0.0743086872
 C    0.8357247504   -0.5775886291   -1.3241543269
 N    0.7377473598   -0.5389880905    1.1698826527
 C    1.9926210339   -0.1102037521    1.4900996990
 O    2.6166920462   -0.4174465019    2.4878870932
 C    0.0841530460   -1.4383812088    2.0904157024
 C   -1.3904934641   -1.3877664487    2.3833500330
 C   -0.7977022293   -2.5732872378    1.6462331359
 H    0.7815455167    1.9800960287   -0.1277818141
 H   -0.7480073095    1.7020284853   -0.9674485962
 H   -0.7018824261    1.7357925650    0.8069623202
 H   -0.8959379245   -0.5772777870   -0.0821508341
 H    1.8171517621   -0.1019299077   -1.4125270214
 H    0.9857717119   -1.6602142541   -1.2922554982
 H    0.2657510238   -0.3331328832   -2.2261788928
 H    2.4080089407    0.5716041606    0.7262690755
 H    0.7465816555   -1.6259367252    2.9247938676
 H   -1.7065898144   -1.5114729572    3.4132396859
 H   -2.0133233923   -0.7081805090    1.8114897718
 H   -1.0323543192   -2.6703801374    0.5915966892
 H   -0.7014703541   -3.5214696579    2.1635242368