16

 C   -0.0445028454    1.4618725325   -0.0670423358
 N   -0.1298919327    0.0130869144   -0.0926154284
 C    0.4876103129   -0.6371293905   -0.9821601306
 O    1.2735694922   -0.0916038354   -1.9817803276
 C    1.8063295827   -1.1309691341   -2.7954967828
 C    1.2667599526   -2.4147060470   -2.1970439133
 C    0.5018947212   -2.0901065611   -1.1416063529
 C    1.5719778105   -3.6829101299   -2.7281968329
 C    1.8607166841   -4.7455792987   -3.2174325705
 H    0.5768109405    1.8962345912   -0.8578467224
 H   -1.0553622122    1.8798299436   -0.1435271463
 H    0.3507978911    1.7784534526    0.9055316417
 H    1.4814707542   -0.9898334797   -3.8341483256
 H    2.9027941463   -1.0923596271   -2.7726066038
 H   -0.0371976621   -2.7541918596   -0.4839511598
 H    2.1060063942   -5.6900107412   -3.6370745190