20

 C   -0.0631091810    1.5322346461    0.0289221612
 C    0.0173539382    0.0366712057    0.0042563091
 C    0.8103775858   -0.8366211136   -0.9835323083
 C    1.0409483976   -2.1350016812   -0.3018471002
 C    0.9038358292   -1.9922365522    1.1970336904
 C   -0.1444150650   -0.8985429895    1.2052743525
 C   -1.0373300496   -1.0451448109   -0.0043946178
 C   -2.5301607120   -1.0474423739   -0.0526263426
 N   -0.2582597066   -1.8889346453   -1.0029057955
 H    0.8878185256    1.9809295093    0.3414295828
 H   -0.3116385090    1.9373614005   -0.9588360424
 H   -0.8329452974    1.8730438416    0.7288629209
 H    1.2945505911   -0.5019583805   -1.8946599766
 H    1.6591811780   -2.9036652648   -0.7528632929
 H    0.5532803480   -2.9145895991    1.6732069307
 H    1.8470267706   -1.6930887972    1.6677622114
 H   -0.5597913832   -0.4961922289    2.1217448576
 H   -2.9437687440   -0.3132598372    0.6461168545
 H   -2.8932554500   -0.8071252901   -1.0572550149
 H   -2.9264675762   -2.0330754989    0.2187042901