23

 C   -0.0050458767    1.6407401460   -0.0309768351
 C    0.0061321376    0.1078648885   -0.0050340508
 C    0.7452568927   -0.5058566264   -1.1978772117
 C    2.2867634500   -0.3801796044   -1.1001428453
 C    2.8143399779   -1.2687210740   -2.2447644395
 C    2.2270769250   -2.3167472703   -1.2787222214
 O    2.6267331729   -1.4545263755   -0.1639455292
 C    0.6991307190   -2.0821753033   -1.3407912832
 C   -0.0603812592   -2.8608146477   -0.2684009197
 H    1.0080488924    2.0558434474   -0.0066507150
 H   -0.4936830932    2.0184564166   -0.9364856463
 H   -0.5448641174    2.0451322776    0.8308810621
 H    0.4705083037   -0.2453051362    0.9223720039
 H   -1.0289702689   -0.2525757042    0.0100029798
 H    0.3833082088   -0.0316480544   -2.1181993493
 H    2.7241576783    0.5841645820   -0.8406867757
 H    2.3859464873   -1.1637851914   -3.2452964418
 H    3.9039793220   -1.2989831159   -2.2729785641
 H    2.5945382533   -3.3410700081   -1.2003606113
 H    0.3116910125   -2.3613469877   -2.3269884476
 H    0.3631070186   -2.6805731535    0.7231968577
 H   -1.1209721504   -2.5934585923   -0.2413551615
 H   -0.0002576362   -3.9362545127   -0.4694115650