17

 C   -0.2609220721    1.5260433886    0.0626436015
 C   -0.0149937547    0.0215728724    0.0600896597
 C    0.6275940508   -0.5934384990   -1.2556898701
 N    1.7309614798   -1.0665311223   -0.3973663700
 C    3.0454246811   -1.4429879501   -0.1662387539
 C    3.2209203856   -1.0862181188    1.1599963545
 O    4.3291717442   -1.3089958113    1.9004879119
 N    2.1197879801   -0.4672020850    1.7147725109
 C    1.2591303880   -0.4880375038    0.7178938450
 H    0.6268652525    2.0729204688   -0.2702240296
 H   -1.0963266145    1.7880242123   -0.5947488729
 H   -0.5056559850    1.8696193059    1.0719878951
 H   -0.9192483505   -0.5131115164    0.3693988878
 H    0.0731110433   -1.3945306102   -1.7520040308
 H    0.9349998331    0.1598503979   -1.9869323760
 H    3.6753838275   -1.9641650035   -0.8633368683
 H    4.1418213107   -0.9463654055    2.7747261653