21

 C    1.2339972156    0.7866465325    0.9178724396
 O    0.7989088226   -0.5343804397    0.6909373001
 C   -0.5775708209   -0.6154622151    0.3938535376
 C   -0.9584059551   -2.0727502663    0.1306053072
 C   -2.4851836164   -2.2279485450    0.0611671634
 C   -2.9155620268   -3.6766791850   -0.0313030276
 O   -3.8320725114   -4.1513247946    0.5903681389
 O   -0.4562043738   -2.5486717850   -1.1066193983
 C    0.8816335126   -3.0184263658   -1.0876236173
 H    2.3007962430    0.7445848313    1.1492255166
 H    1.0850706423    1.4233333570    0.0320370719
 H    0.7032741166    1.2477975704    1.7655416311
 H   -1.1728510026   -0.2224076453    1.2358442900
 H   -0.8222870569   -0.0161973460   -0.4990417897
 H   -0.5554284573   -2.6807968913    0.9572747546
 H   -2.9837365091   -1.7702892220    0.9193160604
 H   -2.8299744794   -1.7199890831   -0.8507375802
 H   -2.3141441789   -4.2882876793   -0.7365543886
 H    1.5944291275   -2.2155581816   -0.8779098169
 H    1.0148923855   -3.8104995150   -0.3353747907
 H    1.0779749829   -3.4378644112   -2.0776210521