17

 C   -0.0606400482    1.5364271021    0.0018041310
 C   -0.0251963282    0.0374832411    0.0199300931
 C    0.4431787563   -0.7954664067   -1.1918989112
 C   -0.5511890587   -1.8226929457   -0.6822305482
 C   -0.5434107854   -1.8111883580    0.8133414686
 C    0.4399002868   -0.7553989003    1.2717904508
 O    1.7962242559   -1.0427879018    1.4960614722
 N   -1.3600184163   -0.7954694413    0.0541244212
 H    0.9598023451    1.9362555313    0.0188268306
 H   -0.5613471798    1.9125582238   -0.8958521648
 H   -0.5926054000    1.9241489261    0.8764768363
 H    0.0986245919   -0.3496623044   -2.1289143456
 H    1.5063936000   -1.0482442985   -1.2828036992
 H   -1.0361194054   -2.6169317302   -1.2384687247
 H   -1.0224895152   -2.5867170357    1.4002558362
 H    0.0774116102   -0.2585301854    2.1764026098
 H    2.0984923610   -1.6328677065    0.7983395839