14

 O   -0.2238826329    1.2199315418   -0.1916469854
 C   -0.1359548423   -0.1247862061   -0.0846593525
 C   -1.2654422088   -0.8861702655    0.0031267951
 O   -2.5386787538   -0.3797651607    0.0226050509
 C   -1.0584092110   -2.2872122991    0.0935683304
 N    0.0983369498   -2.8896339478    0.1025032457
 C    1.2561020461   -2.1319231083    0.0086758192
 N    2.4612346898   -2.5590002119   -0.0156227522
 N    1.0799259752   -0.7290113181   -0.0755883949
 H    0.6016247141    1.6446015557    0.0681429696
 H   -2.4831685727    0.5820559622    0.0030565779
 H   -1.9479884680   -2.9130352834    0.1699949824
 H    2.4441586749   -3.5746670650    0.0474801699
 H    1.9300221496   -0.2025195539   -0.2200344761