11

 O    0.0201838099   -0.0282413343   -0.0012209945
 C    0.0184589037    1.1758344454    0.0083263049
 C    1.2429369529    1.9988723740    0.0021710486
 N    1.3010982813    3.2966736221    0.0116926883
 C    2.6558524131    3.5795356548    0.0001616338
 C    3.3504143285    2.4000875221   -0.0166590513
 O    2.4623687485    1.3915327176   -0.0154769535
 C    3.1821393933    4.8983900956    0.0053095452
 N    3.6341210757    5.9629247247    0.0091563676
 H   -0.9003564343    1.7916978569    0.0228720833
 H    4.3968981974    2.1466272610   -0.0295913424