15

 O    0.8133997510    1.1255402123    1.2996253118
 C    0.5266375990    1.7375246504    0.3056027954
 C    1.1578168427    1.4906775044   -1.0627046871
 N    1.2680892914    2.7199529610   -1.8163057923
 C    2.2969041255    3.5856312970   -1.4898809742
 C    3.0823076344    3.6514646096   -0.3776524414
 O    3.9197342335    4.7370112319   -0.5385926952
 C    3.5917568521    5.2397584420   -1.7369526894
 N    2.6425060211    4.6129815572   -2.3559961043
 H   -0.2458709190    2.5389126806    0.2985019058
 H    2.1152052544    0.9671861512   -0.9173068451
 H    0.4819896579    0.8136436818   -1.5993741495
 H    1.1238357832    2.6501334640   -2.8122856370
 H    3.1759771760    3.0942103551    0.5359471789
 H    4.1406842666    6.1053630716   -2.0733089265