12

 O   -0.0401224606    0.0586199008    0.2893818411
 C    0.0025828386    1.2166974082    0.0175636399
 O   -1.1224726491    1.9462563012   -0.2915098826
 C   -0.7916845535    3.2435540663   -0.8105648883
 C   -1.6024156833    4.2712906010   -0.1489191172
 N   -2.2281937598    5.1105002326    0.3368111148
 C    0.7081360029    3.4175649678   -0.5761278089
 O    1.0440502525    3.2683830358    0.7907724439
 C    1.1978462151    2.1310687325   -0.0777113719
 H   -1.0137022543    3.2537230433   -1.8845416104
 H    1.2850633665    4.1196055548   -1.1682038672
 H    2.1955497449    1.7299216958   -0.2067981531