19

 O    0.0950195292   -0.1138138832    0.2402832976
 C    0.0773217901    1.0613584318   -0.0273401692
 C    1.3174926435    1.9173910894   -0.1374161138
 C    1.3157328883    2.8851663270    1.0921854306
 N    2.6212389930    3.4791288684    1.4113359642
 C    3.5588954041    2.6591117568    2.1802017419
 C    3.8353119844    2.9653836738    0.7555171827
 C    3.7240182301    1.8853225742   -0.3103803233
 N    2.5027936057    1.0986995335   -0.2570987893
 H   -0.8815370383    1.6116677342   -0.1543227960
 H    1.2313590889    2.5311500729   -1.0468992274
 H    0.6096607774    3.7022407538    0.9037614810
 H    0.9543996274    2.3492261814    1.9785660620
 H    4.0921044780    3.1745536553    2.9751441060
 H    3.2578433192    1.6410848704    2.4262407080
 H    4.5612477989    3.7451282019    0.5273603906
 H    3.7703865843    2.3686772029   -1.2969583364
 H    4.5851746912    1.2108633564   -0.2543973268
 H    2.5116432444    0.3668474293    0.4430701478