20

 C   -2.9704931037    0.2698032982   -2.0375892985
 O   -2.4611783434   -0.9476317589   -1.5435580105
 C   -1.8325314385   -0.8144085872   -0.2848360199
 C   -1.2189862809   -2.1434824585    0.0856754067
 C   -0.1636714227   -2.6408445306   -0.8990064521
 C    1.0281984193   -1.7894456426   -0.9245157661
 N    1.9587002046   -1.1039962275   -0.9322692509
 C   -1.0475197469   -2.4610402520    1.5490629688
 C   -2.1006862805   -3.1773931697    0.7394958335
 H   -3.4239499813    0.0632863857   -3.0098303246
 H   -3.7385285072    0.6909335114   -1.3698860601
 H   -2.1770056284    1.0220690946   -2.1659765280
 H   -1.0546529684   -0.0332271356   -0.3272290103
 H   -2.5616414435   -0.5089150857    0.4840562057
 H    0.1457290495   -3.6602055924   -0.6457969034
 H   -0.5930594759   -2.6688993616   -1.9060138991
 H   -0.1628704540   -3.0135565566    1.8467750605
 H   -1.3685845772   -1.7204195486    2.2734632453
 H   -3.1410575722   -2.9185691823    0.9014944657
 H   -1.9373628389   -4.2213929303    0.4946475273