20

 C    0.0322771940    1.5889970956    0.0561456649
 C    0.0467395508    0.0527713849    0.0678323697
 C    0.8009964446   -0.4698194417    1.3000424441
 C   -1.4097859831   -0.4986332433    0.0552524915
 C   -2.2100885451   -0.1016122034    1.2065260061
 C   -2.8670958723    0.2280535440    2.1577731020
 C    0.7171464007   -0.4814307167   -1.2306511476
 C    2.1065767315   -0.0578830686   -1.3887447150
 N    3.2051154723    0.2826483378   -1.5037874873
 H    1.0502938470    1.9885499873    0.0419838620
 H   -0.4947578898    1.9747138207   -0.8238533732
 H   -0.4750710108    1.9714040742    0.9453847100
 H    0.3109508391   -0.1332050595    2.2170614281
 H    0.8268013718   -1.5652867330    1.3150654768
 H    1.8329780349   -0.1076735222    1.3082561211
 H   -1.9119021272   -0.1628653455   -0.8622487492
 H   -1.3770572030   -1.5954122075    0.0035178806
 H   -3.4543092617    0.5150721717    2.9947161738
 H    0.6914397726   -1.5778602267   -1.2414267709
 H    0.1550526536   -0.1419202580   -2.1091217975