18

 O    0.0976015120    1.4351747458    0.3132783203
 C    0.0777595281    0.0595415371    0.0987230534
 C   -1.2670304515   -0.7515426055    0.0435730358
 C   -0.6962771052   -1.6134987978   -1.1362310609
 C   -1.5725687962   -1.9877004007   -2.2963383573
 C   -1.2415988875   -3.1555787201   -3.1490277686
 N   -2.4084324772   -3.2008729470   -2.2509579554
 C    0.2942136266   -0.4464158628   -1.3286565347
 O    0.7375658270    0.1084995719   -2.2957143772
 H    0.1481673591    1.8598350765   -0.5523768382
 H    0.7635652353   -0.4287765493    0.8033359104
 H   -1.5541832034   -1.2789169504    0.9529737610
 H   -2.0880745756   -0.1141858288   -0.2939720479
 H   -0.1732442440   -2.4949247207   -0.7451001588
 H   -2.0728298115   -1.1430332705   -2.7659135698
 H   -1.4778727884   -3.1377070860   -4.2086607132
 H   -0.3595874019   -3.7377208540   -2.8933047447
 H   -2.1830771657   -3.7449927976   -1.4209149042