21

 C   -0.2308096658    1.5210619955   -0.0620729981
 C    0.0923412894    0.0176824392    0.0032697065
 C    0.7993014366   -0.4910143999   -1.2188832244
 C    2.0421703882   -0.9856547816   -1.2856143181
 C    2.4447125258   -1.3754657487   -2.6906469325
 C    1.1703408525   -1.1319816851   -3.5041864846
 O    1.2973174400   -0.6191222479   -4.7969200685
 C   -0.0571372290   -1.9291564848   -3.1511168875
 C    0.1497900455   -0.5316210075   -2.5688486393
 H    0.6846445846    2.1121264539   -0.1630801236
 H   -0.8749399832    1.7562145734   -0.9153191904
 H   -0.7492651363    1.8465115059    0.8450543469
 H    0.7088600385   -0.1839653390    0.8864249653
 H   -0.8454105169   -0.5387218460    0.1400677711
 H    2.7030379354   -1.1095991897   -0.4341182920
 H    3.2525844126   -0.7383698535   -3.0760974164
 H    2.7989910798   -2.4125048816   -2.7578877712
 H    1.4859586098   -1.3538039734   -5.3907873766
 H   -0.8012290716   -2.0153651750   -3.9365458565
 H    0.0234172206   -2.7828595420   -2.4850341874
 H   -0.5167833662    0.2573061376   -2.8983499626