23

 C   -0.2782497213    1.5301627988   -0.2106918055
 C   -0.2682200374    0.0088785675   -0.3812272693
 C    1.0953508697   -0.5206180774   -0.8533190006
 C    1.1016011547   -2.0190633193   -1.1136874748
 C    0.9475100237   -2.8991023650    0.1125361870
 O    0.3114966082   -2.4491662229   -2.2419391020
 C    1.7395255447   -2.6186008920   -2.3041112526
 C    2.4290150269   -1.8917119420   -3.4320458373
 O    2.1292907850   -2.5092546241   -4.6747724131
 H    0.4608630942    1.8526076862    0.5314877631
 H   -0.0410725256    2.0364454306   -1.1530589115
 H   -1.2585683911    1.8864764308    0.1203248530
 H   -0.5478935103   -0.4627890819    0.5679789648
 H   -1.0283667356   -0.2906615831   -1.1120723604
 H    1.3786621010    0.0170764953   -1.7621966892
 H    1.8631509699   -0.2918316042   -0.1020566045
 H    0.0099224937   -2.6859906175    0.6344126862
 H    0.9427895937   -3.9543580925   -0.1699995042
 H    1.7699496569   -2.7292318826    0.8158479100
 H    2.0531057757   -3.6619632940   -2.2202819815
 H    2.1550505424   -0.8290728152   -3.4432496316
 H    3.5158211420   -1.9592649374   -3.3104772959
 H    1.1682363891   -2.5168793882   -4.7516141998