25

 C    0.9507143115    1.6735605395   -0.3216468806
 O    1.0280359168    0.2761262549   -0.1816437542
 C   -0.1178320423   -0.3871729983   -0.6622260408
 C    0.0901031332   -1.8796125807   -0.4552171525
 O   -1.0576401780   -2.5422208317   -0.9305513870
 C   -0.9928481363   -3.9471914364   -0.7975919730
 C   -2.2978437910   -4.5627009205   -1.3010328850
 C   -2.1985110997   -6.0928214369   -1.2933130433
 C   -3.4970988931   -4.0674949182   -0.4835177423
 H    0.8482743665    1.9740371999   -1.3766568847
 H    0.0992161822    2.0940333847    0.2368971853
 H    1.8768310568    2.0950744435    0.0768613457
 H   -1.0230580688   -0.0609914339   -0.1241743687
 H   -0.2796123742   -0.1797192561   -1.7327088677
 H    0.9929859498   -2.2061078424   -0.9963615595
 H    0.2561506199   -2.0853054571    0.6146430929
 H   -0.1374211370   -4.3424271267   -1.3718715304
 H   -0.8273030706   -4.2228088297    0.2596377434
 H   -2.4254821789   -4.2264106032   -2.3388048910
 H   -2.0518404522   -6.4733012806   -0.2752731882
 H   -3.1154045861   -6.5448491209   -1.6840085970
 H   -1.3628789077   -6.4473678829   -1.9063307502
 H   -3.5370777470   -2.9759323676   -0.4771512768
 H   -4.4377401109   -4.4473604999   -0.8951429792
 H   -3.4266302029   -4.4096280888    0.5564447449