14

 O   -0.0733695457    0.0014251099    0.0573325034
 C    0.0119387425    1.2012012217   -0.0109624878
 C    1.3176522210    1.9254663463   -0.0023046744
 C    2.7421633651    1.4061454346    0.0886505699
 N    2.9850764233    2.9192902549    0.0029725835
 C    1.7997139085    3.0438965710   -1.0143553155
 C    1.1735556672    4.1259278568   -0.1474137331
 O    0.5553196967    5.1381566767   -0.2366971893
 C    1.7213738572    3.1645959419    0.8967085545
 H   -0.8878417786    1.8531945962   -0.0865288620
 H    3.0711460882    0.9650280800    1.0322675184
 H    3.1444692022    0.8517076109   -0.7622009370
 H    1.9628826388    2.9311076781   -2.0841719787
 H    1.7964181837    3.1882729008    1.9819081980