21

 C   -0.2525620167    1.5266603570   -0.0442553314
 C    0.0994255908    0.0298590455    0.0329676533
 C    0.7811705165   -0.4846239833   -1.2022756211
 C    2.0386324379   -0.9312642644   -1.2631050143
 C    2.5986016337   -1.4085871909   -2.5877004354
 C    1.5240372323   -1.2388528024   -3.6711854051
 C    0.8742914316    0.1625894800   -3.6296221365
 C    0.0300577720   -0.5205366173   -2.5283245898
 O    0.2786179651   -1.8087321388   -3.1719105175
 H    0.6512398450    2.1335673546   -0.1576012240
 H   -0.9072304131    1.7426610258   -0.8953846978
 H   -0.7712142083    1.8527905624    0.8625310835
 H    0.7399261035   -0.1504703624    0.9036147541
 H   -0.8251979911   -0.5410495923    0.2005802894
 H    2.6715547831   -0.9785254928   -0.3803294755
 H    3.5048391221   -0.8488900677   -2.8582826906
 H    2.8949142666   -2.4640338083   -2.5222262010
 H    1.8160029473   -1.6623827397   -4.6358875951
 H    1.4838142610    1.0261022788   -3.3570963546
 H    0.2945819847    0.3592892105   -4.5332270099
 H   -1.0374479440   -0.3028214543   -2.4428613707