19

 C   -0.2025054491    1.3523895476   -0.0432023862
 O   -0.0899826345   -0.0529684792   -0.0783671053
 C    0.7779593468   -0.5234183030   -1.0924104122
 C    0.6818416346   -2.0474116184   -1.0429763105
 O   -0.6621489334   -2.4581550465   -1.1558250667
 C    1.4510246262   -2.7052314150   -2.2017301672
 N    2.8569742836   -2.2938694090   -2.1825622933
 C    1.2796694700   -4.1739890213   -2.1673614312
 N    1.2374528532   -5.3290110024   -2.1500048860
 H    0.7687575177    1.8295383266    0.1548876370
 H   -0.5973978812    1.7510831371   -0.9899992613
 H   -0.8929449328    1.6041701983    0.7649766586
 H    0.4483486040   -0.1597488015   -2.0801408920
 H    1.8089480365   -0.1855345586   -0.9277997020
 H    1.1178388952   -2.3908289169   -0.0891717745
 H   -1.1657296903   -1.8684031695   -0.5805420391
 H    1.0009617056   -2.3451817806   -3.1338776621
 H    3.3268900790   -2.7167226370   -1.3862597069
 H    3.3298142287   -2.6454368609   -3.0093230790