18

 C    0.0752430350    1.5008138774    0.0533618418
 C   -0.0580341601   -0.0345519545   -0.0343883993
 C   -1.5226850262   -0.4698680036   -0.0323016149
 C    0.7839471404   -0.5880308323   -1.1972792681
 O    2.1274235940   -0.6479164005   -0.7106578901
 C    2.0677794390   -1.0870828352    0.6316541608
 C    0.7070179165   -0.6293415277    1.1622093991
 O    0.3096853033   -0.7250127561    2.2932692201
 H    1.1240601644    1.8085885801    0.0073888701
 H   -0.4550235126    1.9714828654   -0.7812542564
 H   -0.3540794399    1.8718646146    0.9884268427
 H   -2.0742232933    0.0036056968   -0.8512132527
 H   -1.6186490278   -1.5550376325   -0.1407799808
 H   -1.9952775960   -0.1860267925    0.9121960044
 H    0.4343254036   -1.5925250430   -1.4872129202
 H    0.7857509845    0.0494456257   -2.0847917654
 H    2.1274786769   -2.1860172373    0.7133098325
 H    2.8976559782   -0.6580435247    1.2003907264