17

 O   -0.0295934482    1.3853212069   -0.0778023988
 C    0.0756272168   -0.0130961243   -0.0174305267
 C    0.0794337875   -0.6258402355    1.4214524375
 O   -1.3789219372   -0.5445071379    1.4299218542
 C   -1.3328857757   -0.6342809965   -0.0169176245
 C   -1.2953870398   -2.1218686803   -0.3980221423
 O   -1.0221699966   -2.1816223796   -1.7969922901
 C   -0.2174752729   -2.8032922243    0.4301764524
 C    0.4725934388   -2.0811085433    1.3135603153
 H    0.8465390692    1.7596592681    0.0578572211
 H    0.8072789366   -0.4149611446   -0.7257002263
 H    0.5378816872   -0.0708302208    2.2427697415
 H   -2.1310389043   -0.0798615064   -0.5148767665
 H   -2.2788831918   -2.5686464004   -0.1823815288
 H   -1.0374870468   -3.1041755833   -2.0703650344
 H   -0.0394229830   -3.8641073092    0.2713484695
 H    1.2789167403   -2.4881829186    1.9147720870