18

 C    0.4446268946    1.3935288983   -0.0107074984
 N   -0.1748567686    0.0631453285   -0.0007247106
 C   -0.2782191727   -0.5675595729   -1.2452447172
 N   -0.7619814179   -1.6832305079   -1.6003745883
 C   -1.4078243291   -2.6047367476   -0.7407954266
 C   -0.5830883026   -3.6064473447    0.0482311925
 C   -1.4392913140   -2.5810139543    0.7704151332
 N   -0.8294205135   -1.6324844052    1.6268278268
 C   -0.3305399594   -0.5281017279    1.2576358276
 H    1.5406783609    1.3434612252   -0.0072512491
 H    0.1220941787    1.9418885501   -0.8973909974
 H    0.1174299025    1.9562191969    0.8649624570
 H    0.1608926110    0.0518595831   -2.0288028916
 H   -2.2939605595   -3.0257789834   -1.2110120290
 H   -0.8697542051   -4.6529578339    0.0586503251
 H    0.4857560923   -3.4232826871    0.0676004604
 H   -2.3445772318   -2.9876986010    1.2161633713
 H    0.0755223439    0.1158138938    2.0391905444