20

 N    0.3585136444    0.7680350456    0.8392991045
 C    0.0018150322    0.0992408327   -0.2975977183
 O    0.7171900988    0.0724145884   -1.2820647462
 C   -1.3429133988   -0.6273831973   -0.2235694744
 C   -2.0558706995   -0.6820671085   -1.5958813139
 C   -2.8511280155   -2.0064273266   -1.6087192458
 C   -2.0796600139   -2.9383252561   -0.6863971640
 C   -0.5828863273   -3.0231105173   -0.8544516188
 C   -1.1698291415   -2.0964377727    0.1817840985
 H    1.2850046723    1.1600257319    0.8878624257
 H   -0.1821831985    0.7074794170    1.6838786753
 H   -1.9818564517   -0.1375456793    0.5221662146
 H   -2.6931514504    0.1906334719   -1.7602824849
 H   -1.2904970515   -0.6706624836   -2.3750337617
 H   -3.8592472913   -1.8563794379   -1.2033316860
 H   -2.9693505374   -2.4012464560   -2.6237333751
 H   -2.5952187132   -3.7974137010   -0.2707225341
 H   -0.0962760639   -3.9207020206   -0.4888005323
 H   -0.1103254682   -2.5878109644   -1.7276981054
 H   -1.0167995751   -2.3230585462    1.2314088022