16

 N   -0.7150875708   -0.0866446415    1.3182248678
 C   -0.1700534916    0.3823347169    0.4140331431
 C    0.5264408868    0.9804987674   -0.7217836723
 C    1.6375282831    1.9149121290   -0.3052176733
 O    2.3776528641    2.5528895450   -1.3846742925
 C    2.9911616250    3.0573491722   -0.1570339675
 C    1.6480097660    3.1729812697    0.6277319117
 C    2.2095805586    2.3739450199    1.8249116669
 C    2.8902661311    1.7033136081    0.6108254286
 H    0.9443161019    0.1851980673   -1.3497635563
 H   -0.1929501497    1.5325254124   -1.3376028510
 H    3.8198002844    3.7586602245   -0.2350820050
 H    0.9472843178    4.0069858506    0.5985732392
 H    2.8703900988    2.9247580175    2.4991293926
 H    1.5001141785    1.7678011428    2.3901529297
 H    3.5954646560    0.8739771580    0.5625134082