19

 C   -0.1651399577    1.5662369687   -0.1173565680
 C    0.0132511417    0.0230896480   -0.0257724789
 C    0.7985684887   -0.3397438369    1.2555886176
 C   -1.3014908693   -0.6187640342    0.0086546770
 C   -2.3797413732   -1.1424075230    0.0841305960
 C    0.7564889695   -0.3922157868   -1.3157192521
 O    0.1686587278   -0.6225353031   -2.3478497073
 C    2.2819964713   -0.4526812793   -1.3185840297
 O    2.7683385270   -0.6876273682   -2.6043621929
 H    0.8076394976    2.0667778748   -0.1512386239
 H   -0.7327164546    1.8330906117   -1.0110811682
 H   -0.7076833208    1.9228993959    0.7617664564
 H    0.2294719293   -0.0175767597    2.1309786050
 H    0.9542005293   -1.4185834143    1.3354058498
 H    1.7702880396    0.1613084311    1.2827827898
 H   -3.3327321781   -1.6089606316    0.1302336904
 H    2.6825822178    0.4893462218   -0.9115967250
 H    2.5945513459   -1.2460635830   -0.6194134418
 H    1.9770946683   -0.8183753618   -3.1524621242