17

 O    0.0060011314    1.2797134289   -0.1317071687
 C   -0.0453171701   -0.1371639128    0.0170602607
 C    0.5225120295   -0.6049418039    1.3714711907
 C   -0.7085535066   -0.6515234837    2.2509689344
 C   -1.8333774510   -0.6335271452    1.5366559933
 C   -1.5499884179   -0.5887897397    0.0421406383
 O   -2.3921930485    0.2763521081   -0.6865227622
 C   -1.7108853583   -1.9823033560   -0.5674931446
 O   -0.9217122733   -2.8798498072   -0.4202428955
 H   -0.2393529228    1.6694500692    0.7169696937
 H    0.4892274778   -0.5439875787   -0.8422430541
 H    0.9700382627   -1.6000115613    1.2749176812
 H    1.3053763193    0.0730497903    1.7301493208
 H   -0.6548294483   -0.7206517000    3.3318519149
 H   -2.8464286645   -0.6800933481    1.9174353168
 H   -1.8801927459    1.0909108936   -0.8031222231
 H   -2.6320264035   -2.0908254936   -1.1804680265