21

 O   -0.1581434357    1.5259747159   -0.0784326763
 C   -0.0109583728    0.1183381010   -0.1886414968
 C   -1.3550165037   -0.5184896744    0.1571282233
 C   -1.3331910504   -2.0109949587    0.1059467115
 C   -1.2965718019   -3.0105747182   -1.0314687438
 C   -0.1110223151   -3.7538773341   -0.4231169898
 C   -0.5501972910   -3.1323399510    0.9304197032
 C   -1.9196388940   -3.8008578220    1.2265329838
 C   -2.4340125440   -3.0419323844    0.0065769764
 H    0.6858892452    1.9347301432   -0.2901899717
 H    0.2846731625   -0.1769064262   -1.2079042583
 H    0.7644074107   -0.2569332983    0.4989236928
 H   -1.6541842089   -0.1691556322    1.1540543080
 H   -2.1097705398   -0.1386976412   -0.5429216083
 H   -1.5108382774   -2.8283523917   -2.0775931077
 H   -0.0792485346   -4.8485040261   -0.4853581313
 H    0.8398501240   -3.3405230265   -0.7719899419
 H    0.1720893442   -2.9636455470    1.7273721021
 H   -1.9549806060   -4.8971319917    1.2293589920
 H   -2.3677774741   -3.4181186885    2.1479415041
 H   -3.4603476572   -2.8738130379   -0.2966015613