21

 C   -0.0263547046    1.5374541123    0.0161498122
 C    1.5181083618    1.5281381425   -0.0555642221
 C    2.2034672030    1.0049179462    1.2592032807
 C    1.4424492151    1.1900928566    2.5819589905
 C    0.3387277709    0.0827572629    2.5875399679
 C    0.5197100033   -0.6843196145    1.2677084895
 C   -0.0123580043   -0.0073114928   -0.0478342248
 C    1.4613370824    0.0515152373   -0.5949444017
 C    1.9778423510   -0.4563693341    0.7841129018
 H   -0.5160378161    2.0298070839    0.8630467431
 H   -0.4437243145    1.9488161181   -0.9088405269
 H    2.0176582800    2.3531570465   -0.5649957616
 H    3.2488841427    1.3178778234    1.3104804907
 H    2.1197514526    1.0585461428    3.4324575745
 H    1.0207390309    2.1970549467    2.6710403006
 H    0.4768091206   -0.5898233515    3.4407465174
 H   -0.6691499985    0.5016251567    2.6796233130
 H    0.2104225712   -1.7304714440    1.3258304011
 H   -0.8382955584   -0.5121020947   -0.5505671981
 H    1.7838216553   -0.2748875385   -1.5810115170
 H    2.7418512059   -1.2170662558    0.9495054393