22

 C   -0.2643882574    1.1931269673   -0.3796965007
 C    1.1308700731    1.0088485423    0.1067852359
 N    0.1958133578   -0.1082221836    0.0866359338
 C   -0.2509306961   -0.6526224529    1.3550672053
 C   -0.8209543597    0.1955265399    2.5505340182
 C   -1.9537421049   -0.8578916969    2.7271852753
 C   -3.3058728018   -0.4495584710    2.0992940813
 C   -2.8011148554   -0.9398045014    0.7076461792
 C   -1.5213163029   -1.5297829955    1.3707165173
 H   -0.9322136614    1.7798243565    0.2465794729
 H   -0.4740407823    1.2577590043   -1.4441579890
 H    1.9613359671    0.9491409733   -0.5917620117
 H    1.3761496046    1.4555599170    1.0694184524
 H    0.5841053370   -1.2542820848    1.7315094780
 H   -0.1387580611    0.3107690923    3.3958237205
 H   -1.2014945695    1.1873131270    2.2881893339
 H   -1.9652288112   -1.3879951481    3.6800583906
 H   -4.1415407551   -1.0490595795    2.4711726453
 H   -3.5798883201    0.6066018935    2.1886185841
 H   -3.4406680057   -1.6898560115    0.2372920056
 H   -2.6147181955   -0.1561881101   -0.0291497938
 H   -1.3765234495   -2.6035218981    1.2432397456