19

 C   -0.0570295604    1.5026929060    0.0167273972
 C    0.0312809346    0.0180668016   -0.0476878406
 C    0.0425768373   -0.8165936737   -1.0839998626
 C    0.0325888999   -2.2329147039   -0.4643902028
 O    0.8320844094   -2.0027962162    0.7046782189
 C    0.0312781205   -0.9166304472    1.2099127905
 C    0.5698436838   -0.3699248168    2.5102901834
 C   -1.3614397165   -1.6108465870    1.2328991981
 C   -1.3574500336   -2.4391170600    0.1948713940
 H    0.7765122282    1.9360841224    0.5831953191
 H   -0.0558290061    1.9476068002   -0.9820347085
 H   -0.9773292784    1.8207842254    0.5261739346
 H   -0.0142834299   -0.5927483676   -2.1401801481
 H    0.4284402850   -3.0498081692   -1.0660319034
 H    1.5882202512    0.0069185181    2.3793364585
 H   -0.0575351094    0.4493868414    2.8748907594
 H    0.5884317362   -1.1535521046    3.2725279906
 H   -2.1490408734   -1.3908967926    1.9400979483
 H   -2.1430594685   -3.0768046862   -0.1846847365