20

 C    0.0811855992    1.5531184951    0.0348864087
 C   -0.0003151379    0.0215151596    0.0139375444
 C    0.6213597282   -0.5439904702   -1.2847830283
 C    0.7034671341   -2.0632707852   -1.3028913234
 O    1.9940220989   -2.6510186757   -1.0862731883
 C    1.0215971530   -2.7719258215   -0.0527779341
 C    1.1890790753   -1.9680477379    1.2091646599
 N    2.0987809671   -0.8100402824    1.1685862891
 C    0.6510088462   -0.5769600743    1.2499347780
 H    1.1267176534    1.8788668889    0.0450564080
 H   -0.3997668978    1.9863826666   -0.8483342826
 H   -0.4109713861    1.9681400729    0.9210014977
 H   -1.0610656883   -0.2696355534    0.0439648950
 H    0.0342235411   -0.1926841814   -2.1394060141
 H    1.6350072122   -0.1488725224   -1.3959092446
 H    0.1111931213   -2.5809967738   -2.0569822031
 H    0.6444807424   -3.7838796877    0.0985460707
 H    1.1541241176   -2.5461627574    2.1291692331
 H    2.5400266008   -0.6870082749    2.0751076563
 H    0.2420973694   -0.2324156947    2.1988609474