22

 C    0.6648756066    1.7280652691   -0.4577539188
 C    0.0683998387    0.4498065295    0.1395940115
 C    0.1461005638   -0.7301964524   -0.8508548192
 C    0.8074593249    0.0554813332    1.4165030370
 O    1.9967237348    0.2262911893    1.5776830780
 N    0.0275049571   -0.6418841557    2.3437960522
 C   -1.0300152200   -0.0470580745    3.1487006851
 C    0.2443532485   -0.5459102084    3.7696358430
 C    0.3042366948   -1.8250609059    4.5670792081
 H    1.7337822433    1.5947216414   -0.6412051366
 H    0.1727311923    1.9751515443   -1.4034303275
 H    0.5485716084    2.5800672852    0.2192640687
 H   -0.9867342244    0.6119610470    0.3892181172
 H    1.1884132123   -0.9415491804   -1.1099301393
 H   -0.2907848994   -1.6365057694   -0.4226362675
 H   -0.3932898113   -0.4889109896   -1.7720629783
 H   -1.1768182892    1.0288206953    3.0818294857
 H   -1.9438769814   -0.6294406295    3.2398791627
 H    0.9540941352    0.2241944200    4.0684500411
 H   -0.4232719351   -2.5507480655    4.1925669469
 H    1.3000082541   -2.2739842073    4.4983431333
 H    0.0909176261   -1.6315621657    5.6234665868