22

 C   -0.0131160417    1.5701285832    0.0007275717
 C    0.0227146426    0.0398780050   -0.0034038594
 C    0.7088494171   -0.5092678246   -1.2667622252
 C    1.0041688319   -1.9830018788   -1.1691266513
 C    0.9519013911   -2.6710744468   -0.0295800915
 C    0.6309935484   -2.0595894705    1.3140906614
 C    1.5393448439   -2.6279029159    2.4152796381
 C    0.7111242412   -0.5254725908    1.2474153529
 H    1.0010471892    1.9859726146    0.0357577065
 H   -0.5001574700    1.9601963930   -0.8997570288
 H   -0.5593333765    1.9529421025    0.8694345814
 H   -1.0138852635   -0.3276815996   -0.0058780845
 H    0.0829275214   -0.3133073090   -2.1476605403
 H    1.6444483373    0.0430620423   -1.4496466597
 H    1.2664765910   -2.4934903933   -2.0934455125
 H    1.1583136883   -3.7401171119   -0.0374773599
 H   -0.4038230901   -2.3366442487    1.5738283558
 H    2.5914880483   -2.4016099905    2.2095539424
 H    1.2867967323   -2.2010782670    3.3917654813
 H    1.4404423501   -3.7162108932    2.4888588037
 H    1.7684741194   -0.2227426500    1.2394303748
 H    0.2705721684   -0.0910851500    2.1533928832