21

 C   -0.2814610991    1.5323579882    0.1159135777
 C    0.0178411481    0.0318788969   -0.0003362025
 C    0.8503635741   -0.3282253807   -1.2631898802
 C    2.3777463643   -0.3860765173   -1.0164113009
 C    2.6889232674   -0.8768030108    0.4205998388
 C    1.5436835138   -1.8027045952    0.9472134860
 C    0.7343918073   -0.5036698555    1.2721848084
 C    2.1094437606    0.1698711284    1.3780649930
 O    2.5657973205    1.0720397635    2.0217335374
 H    0.6374486439    2.1258804736    0.1564369835
 H   -0.8698088566    1.8761219379   -0.7408336472
 H   -0.8509019921    1.7525076772    1.0250850263
 H   -0.9419526655   -0.4949779017   -0.0742340132
 H    0.5248249699   -1.3085105387   -1.6239032925
 H    0.6259086259    0.3746428652   -2.0717930617
 H    2.8416664025   -1.0566800482   -1.7477247661
 H    2.8417416556    0.5964623130   -1.1590457309
 H    3.7314378157   -1.1749366404    0.5454386404
 H    1.0988359280   -2.5060725701    0.2411529965
 H    1.8383700439   -2.3354229481    1.8536794252
 H    0.0815304919   -0.4763598772    2.1473146820