14

 N   -0.0325034417    1.5538706936    0.2013334350
 C   -0.0403342858    0.1387297444   -0.0374645246
 C   -1.3608537719   -0.6412564929   -0.0341655501
 C   -2.1600954015   -0.4664919867   -1.2685020655
 C   -2.1534946520    0.7574941688   -2.0357680740
 N   -2.1576719235    1.7451260213   -2.6379232849
 N   -0.9999424648   -1.4143203632   -1.2964661402
 C    0.1956123779   -0.5500533104   -1.4192500159
 O    1.0122038684   -0.5300160898   -2.2774532471
 H    0.9127113678    1.8952075831    0.3311377988
 H   -0.4454196523    2.0706868854   -0.5677868775
 H    0.6441317310   -0.3445820190    0.6699245132
 H   -1.7815804714   -1.1570666959    0.8203401326
 H   -3.1073156303   -0.9957340888   -1.3153869397