17

 C    0.0149516626    1.5201149914   -0.0080071755
 C    0.0092231338    0.0217149732    0.0055461705
 C   -0.0194235615   -0.8120066870   -1.0960273769
 N   -0.0147470419   -2.1053707732   -0.6692481012
 C    0.0168643234   -2.1253056968    0.7113404363
 C    0.0287791129   -3.3319499235    1.4399293270
 N    0.0384575545   -4.3254753640    2.0395257686
 C    0.0324576163   -0.8102956413    1.1606165257
 C    0.0671198606   -0.3645831106    2.5882032615
 H    0.9088069318    1.9269736914    0.4794174023
 H   -0.0075280216    1.9057032567   -1.0309856601
 H   -0.8517189434    1.9340615993    0.5207822907
 H   -0.0426520340   -0.5739262754   -2.1481093049
 H   -0.0316859568   -2.9233510734   -1.2531680072
 H    0.9553154360    0.2434820593    2.7962544197
 H   -0.8053904110    0.2509762035    2.8366551405
 H    0.0791002682   -1.2193912096    3.2688751331