20

 C    0.1047925018    1.2343730685   -0.2821226362
 O   -0.0218608457   -0.0239543582    0.3395938866
 C   -1.3076502251   -0.5713301084    0.2207919402
 C   -1.7382907372   -1.1655338174   -1.1527548490
 C   -2.2837984736   -2.4058928870   -0.4005426860
 C   -3.7912641153   -2.3782301978   -0.1673318519
 O   -1.8902612874   -3.6070100481   -1.0380814116
 C   -1.4462377450   -1.9724029610    0.8452340409
 H    1.1284203097    1.5787881469   -0.1161979329
 H   -0.0783008585    1.1794394543   -1.3658911660
 H   -0.5923109420    1.9722562883    0.1465990254
 H   -2.0574816117    0.1370665755    0.6072870241
 H   -2.4365677079   -0.6050247107   -1.7787645886
 H   -0.8575677356   -1.4473786506   -1.7350372861
 H   -4.3241259617   -2.5121149556   -1.1139346191
 H   -4.0932348649   -3.1825931437    0.5158181127
 H   -4.1123786665   -1.4320570912    0.2802186169
 H   -2.2471032058   -4.3459257242   -0.5327235515
 H   -0.4765451119   -2.4754428118    0.8376252473
 H   -1.9020515360   -2.0532415380    1.8352452348