16

 C   -0.1854040539    1.5008932503    0.0245202892
 C    0.0179169040   -0.0052951693   -0.0055694655
 O    1.1284382395   -0.5095835265   -0.0466068325
 C   -1.1717593475   -0.8406736289    0.0169185042
 O   -2.4250524020   -0.2373089781    0.0603745459
 C   -3.3383632523   -1.2214688566    0.0707402464
 N   -4.6502505365   -0.8227877295    0.1815143559
 H   -4.8321594327    0.1052433282   -0.1744190940
 H   -5.3220773814   -1.5011192530   -0.1448084369
 C   -2.7355758471   -2.4576453204    0.0350560097
 C   -1.3415712533   -2.1982873193    0.0018547357
 H    0.7904859984    1.9867659610    0.0064144337
 H   -0.7797053207    1.8295988464   -0.8346128109
 H   -0.7338889829    1.8007884793    0.9235925902
 H   -3.2336954780   -3.4135940853    0.0355192555
 H   -0.5369027535   -2.9156194083   -0.0322519665