16

 C   -0.0487540396    1.3880616093    0.0904530973
 O   -0.0204241011   -0.0339844839    0.0486570711
 C    0.6325483459   -0.6346069253    1.0609459527
 N    1.2215742817    0.0295551713    2.0451049066
 N    1.7417069076   -0.9544282576    2.8215179842
 C    1.4869168340   -2.1946359378    2.3391503976
 C    0.7579496559   -2.0444815847    1.1788381604
 C    0.2182680784   -3.0862469206    0.2519779237
 H    0.9646496596    1.8027304300    0.0605952255
 H   -0.6108338774    1.7049760920   -0.7894356661
 H   -0.5407639475    1.7450318518    1.0016496549
 H    2.2495135949   -0.7010023367    3.6495388050
 H    1.8345527535   -3.0828759800    2.8443498521
 H   -0.8727247090   -3.0256618845    0.1686763888
 H    0.6191760458   -2.9711287418   -0.7613720763
 H    0.4717316471   -4.0916297115    0.5995366626