18

 C   -0.0831911946    1.4224389622    0.2148803002
 N    0.3493706882    0.0628437077   -0.0926786228
 C    0.7632176104   -0.7546005217    0.9421799363
 C    0.7360715873   -2.1090928465    1.1186784708
 C    1.4234339679   -2.3351700394    2.3618858340
 O    1.6498683328   -3.5321076130    2.9774551232
 C    1.8079370644   -1.1321083477    2.8600540404
 C    2.5158442399   -0.7034950108    4.0883817276
 O    1.3918347729   -0.1457780180    1.9682808450
 H    0.7328895874    1.9611016811    0.6996966046
 H   -0.3202115645    1.9319426963   -0.7218647855
 H   -0.9620665657    1.4665702942    0.8757995767
 H   -0.2701260142   -0.4234228138   -0.7242539743
 H    0.2900327011   -2.8435907027    0.4661825450
 H    1.3634679893   -4.2363380012    2.3900538458
 H    3.4342481111   -0.1452345581    3.8661999453
 H    1.8938602584   -0.0666032405    4.7309950885
 H    2.7915606879   -1.5918673282    4.6622239491