14

 N    0.0389641534    1.4345682146    0.1374826924
 C    0.0397948462    0.0539763887    0.0449605992
 N   -1.0905013526   -0.6210605214    0.0394285940
 O   -0.7057537710   -1.9832818811    0.0288864140
 C    0.6229435198   -2.0434412067    0.0094153221
 N    1.2397289316   -3.2819325485   -0.0027744790
 C    0.6601570728   -4.5385505854   -0.0596062440
 O   -0.5157054029   -4.7790730978   -0.1100082885
 C    1.1812490816   -0.7987556863    0.0172611051
 H    0.7617802759    1.8877906362   -0.4028206260
 H   -0.8714544093    1.8356256683   -0.0462085214
 H    2.2475815430   -3.2554323906    0.0260240102
 H    1.4502664623   -5.3150615038   -0.0521322646
 H    2.2240767792   -0.5299988364    0.0241607166