16

 O   -0.0092082923    0.0091086696    0.0758176137
 C    0.0281369009    1.2058733896    0.0289484694
 C   -1.2273067117    2.1549642025    0.0729340273
 O   -0.8151270184    3.5162074446   -0.1566935656
 C    0.4505196927    3.4049942570   -0.7866233166
 C    1.8349454026    3.9027079777   -0.2405006259
 C    1.5329568607    3.1594573205    1.0699449945
 C    1.1237990509    2.2182061632   -0.1204513308
 N    2.4599750936    2.5918925860   -0.7552190415
 H   -1.9214981352    1.8190535672   -0.7095723920
 H   -1.7381019776    2.0887820455    1.0382027934
 H    0.3653244654    3.3873637587   -1.8823429121
 H    2.3461702031    4.8535037599   -0.3957785189
 H    2.4005916847    2.8145378588    1.6307154374
 H    0.7277770450    3.5503053049    1.6870527860
 H    2.3651500155    2.5448222043   -1.7768552884