12

 O    0.0542062715    0.0545152654    0.1568726518
 C   -0.0524766167    1.2322980660    0.0578205064
 C   -1.1224581779    2.2427538212   -0.0588875127
 C   -0.6554431784    3.5700242158    0.6422131569
 N    0.3468973555    3.4834944480    1.6964078626
 C    1.2682974945    2.7583019616    1.2029116345
 N    1.0407446826    2.2703012040   -0.1459706702
 C   -0.0534772593    3.1778817745   -0.6409372040
 H   -2.1607822470    2.0941682591   -0.3208787782
 H   -1.4197353458    4.3309007774    0.7335210935
 H    2.1497877054    2.4284811917    1.7394568488
 H   -0.0016678743    3.6551597455   -1.6097590694