18

 C    0.0726234736    1.3642514389   -0.0865204106
 N   -0.1101458124   -0.0745020174   -0.0434512647
 C   -1.3385339647   -0.6610113530   -0.0656947160
 O   -2.3836585348   -0.0318422511   -0.0909214578
 C   -1.3224573430   -2.1887732165   -0.0769351376
 C   -2.5872566264   -2.7408718603    0.5725262081
 O   -2.5897752858   -4.1705392045    0.4828520411
 C   -3.5699449931   -4.7602347526   -0.2272036648
 O   -3.6428991466   -5.9433609680   -0.3686576911
 H    0.6122398458    1.7218250263    0.7969611803
 H    0.6240507028    1.6697076622   -0.9825423241
 H   -0.9192573938    1.8165229400   -0.1065749077
 H    0.7045737996   -0.6649821233   -0.0205950867
 H   -1.2794855852   -2.5241377414   -1.1207236173
 H   -0.4338925491   -2.5885725031    0.4223665945
 H   -2.6269756981   -2.4825218043    1.6344124490
 H   -3.4703953320   -2.3133375552    0.0885536651
 H   -4.2869916367   -4.0309110067   -0.6530313797