18

 N    0.7938378116   -0.0687743102    1.4503490371
 C    0.4544684037    0.6474279031    0.6096156205
 C    0.0082369356    1.5464978734   -0.4744903252
 O    1.0098744777    2.4063075790   -0.9542396802
 C    1.3694242314    3.4275048187   -0.0536271547
 C    2.4549691411    3.2813754802    0.9689065601
 C    3.5761169873    2.3712157755    0.4522791442
 C    3.7352379819    3.2825446731   -0.8052264726
 C    2.6197186974    4.1953077228   -0.2797335728
 H   -0.3136054341    0.9313707464   -1.3205101441
 H   -0.8689078440    2.1056386813   -0.1135655814
 H    0.5148079183    4.0239468370    0.2698342292
 H    2.2897858641    3.5491935238    2.0059277775
 H    4.4586394557    2.4000099843    1.0937950273
 H    3.3010043443    1.3280266063    0.2820518682
 H    4.7039255052    3.7848724013   -0.8312101999
 H    3.5481969323    2.8201902149   -1.7773422370
 H    2.6067048005    5.2764534490   -0.3554625762