21

 C    0.3165311313    0.6740557279    1.2763803044
 C   -0.0136813774   -0.0393957809   -0.0239039444
 C    0.6118266377    0.4842047359   -1.2669728854
 N    1.0621842339   -0.7965491169   -0.6944844813
 C   -1.3683583167   -0.7107882927   -0.0412230445
 C   -1.6059005020   -1.7180114353    1.0865366933
 O   -2.8071956567   -2.4294377266    0.9084089129
 C   -2.5274480321    0.0192407820   -0.6197936049
 N   -1.9684321655   -1.1639723497   -1.2996784945
 H    1.2731133134    1.2000862620    1.1980237941
 H   -0.4539784998    1.4105496246    1.5280123435
 H    0.3894815155   -0.0295877934    2.1118822378
 H    0.1208332984    0.4102510173   -2.2343073124
 H    1.2496118691    1.3596240625   -1.1706948572
 H    1.9441626109   -0.6704194121   -0.2032521112
 H   -0.7343290447   -2.3936219653    1.1277462777
 H   -1.6744326261   -1.2045083649    2.0519802885
 H   -2.8475784290   -2.6118802290   -0.0432323311
 H   -3.5193744141   -0.1288859287   -0.2046361806
 H   -2.3413906311    0.9980267560   -1.0542668358
 H   -1.4048168848   -0.9180865626   -2.1065113490