19

 C   -0.0660344015    1.4983710848   -0.0138909802
 C    0.0012502957   -0.0112081015   -0.0040236840
 O    0.5965154849   -0.4724070326   -1.2214293035
 C    0.0967589992   -1.7954553213   -1.4092015924
 C   -1.0453668214   -1.9265789825   -0.3594217382
 C   -0.5958118546   -2.6536411467    0.9152058250
 C    0.4684521701   -1.8319248469    1.6035614242
 C    0.7568967062   -0.6027604436    1.1809057923
 O   -1.3071768438   -0.5600817713   -0.0396628773
 H    0.9428520346    1.9148620469   -0.0707653786
 H   -0.6399196028    1.8313213991   -0.8807346158
 H   -0.5462610531    1.8593521047    0.8990012660
 H   -0.2707643175   -1.8832502383   -2.4363831681
 H    0.8858449872   -2.5403878671   -1.2490219240
 H   -1.9568949380   -2.3592836510   -0.7768022145
 H   -1.4521668116   -2.8123660015    1.5849679947
 H   -0.2116483993   -3.6509402231    0.6646671569
 H    0.9890033390   -2.2720538830    2.4498680834
 H    1.5399668466   -0.0039081951    1.6350739742