18

 C   -0.1073579747    1.6516832492   -0.6087463519
 C   -0.0580699831    0.2235147104   -0.1301396176
 C    1.2054185274   -0.5945474678   -0.2375778165
 C    0.6753789921   -0.1616038640    1.1169300414
 O    1.3122821354    0.8605037952    1.8198699779
 O   -1.2206877136   -0.5411846180   -0.4284603907
 C   -2.3341266224   -0.2826516760    0.3162884953
 N   -3.3412883648   -1.1195443871   -0.0793439587
 O   -2.4101256995    0.5295323899    1.2052353066
 H    0.8163518708    2.1654629411   -0.3372902866
 H   -0.2284682174    1.6877462991   -1.6963021270
 H   -0.9401105395    2.1771511199   -0.1361624604
 H    1.1095138298   -1.6382491535   -0.5143898320
 H    2.0844057827   -0.0854484540   -0.6181099837
 H    0.2053437771   -0.9297044313    1.7293303127
 H    2.1441641689    0.5131328806    2.1581578210
 H   -3.2575120476   -1.5918391919   -0.9634398811
 H   -4.2636164015   -0.8821341218    0.2429702614