18

 O   -0.1597555394    1.4156860941    0.1203347948
 C   -0.1148132136    0.0170382869    0.0877877628
 C   -0.4328843502   -0.8317369200    1.3000140497
 C   -1.5466435839   -0.1659215304    2.1224790383
 C   -2.4269002114   -0.1724567008    0.8575004678
 C   -3.8774705438   -0.3668242110    0.7260442448
 N   -3.2531980192    0.9149980690    0.3067322438
 C   -1.3365638098   -0.8424646924    0.0490089939
 O   -1.5583976023   -1.8525451826   -0.8681639186
 H   -0.9914197895    1.6877637626   -0.2848297909
 H    0.7134389401   -0.3752355145   -0.5019936727
 H    0.2522864462   -1.5886189405    1.6593502308
 H   -1.9377556256   -0.8029655786    2.9192759270
 H   -1.2998944584    0.8212739817    2.5231894809
 H   -4.2626780029   -0.9754851408   -0.0869742454
 H   -4.4822468684   -0.3731185513    1.6291560300
 H   -3.4161872645    1.6137418661    1.0291057759
 H   -1.5212854936   -1.4751641575   -1.7537476728