20

 O   -0.0900199051    1.4726927601    0.0668879854
 C    0.0460477883    0.0583913074    0.0369703253
 C    0.7742334452   -0.4786080069    1.2758737655
 C    0.7926618201   -2.0144352365    1.3020739551
 C   -0.6266370913   -2.5890081131    1.2115124313
 C   -1.3842124699   -2.0524395657   -0.0286076558
 C   -1.3719352857   -0.5060568580   -0.0533550909
 C   -0.8159610603   -2.6069933993   -1.2643072559
 N   -0.3622702567   -3.0482131953   -2.2320483523
 H    0.7923864877    1.8561024316    0.0983273335
 H    0.6016551034   -0.2515740606   -0.8636829201
 H    1.7991315429   -0.0871627570    1.3005449203
 H    0.2633194601   -0.0896196828    2.1665507455
 H    1.3899732582   -2.3923210445    0.4627190652
 H    1.2786566070   -2.3715245783    2.2157415130
 H   -0.6029295025   -3.6824740456    1.1882863053
 H   -1.2033895388   -2.2964458691    2.0974444293
 H   -2.4252419715   -2.3931155529    0.0154891868
 H   -1.9459736210   -0.1446482979    0.8077136447
 H   -1.8624029901   -0.1289335655   -0.9546902511