19

 C   -0.2345487295    1.4774547048    0.0475290498
 C   -0.0036194682   -0.0179865339    0.0278617460
 O   -1.2458026599   -0.6901761920   -0.0727763357
 C   -1.0806161105   -2.0045007566    0.4529957579
 C   -0.1043887299   -1.8510801019    1.6332278812
 C    0.8297628871   -0.7267341989    1.1644564159
 C    1.9375524108   -1.1273074212    0.1448456117
 C    1.0824164542   -0.5219982410   -0.9827613615
 O    1.1843232563   -0.4744335113   -2.1728807975
 H    0.7105250847    2.0201371456    0.1452349377
 H   -0.7146822149    1.7916367006   -0.8834937972
 H   -0.8846710459    1.7467636080    0.8853904038
 H   -2.0679008172   -2.3741847315    0.7395890827
 H   -0.6724249070   -2.6807098328   -0.3143456783
 H   -0.6498767669   -1.5351112407    2.5275307666
 H    0.4210342099   -2.7809369841    1.8682265234
 H    1.1718799866   -0.0859870410    1.9770671179
 H    2.8942003794   -0.6124210309    0.2769644138
 H    2.1403304810   -2.1978351310    0.0358321218