9

 N    0.0062324593    1.3419742116    0.1408024743
 C   -0.0450885246   -0.0092511677    0.0449673991
 N   -1.1095700661   -0.7693077460    0.0291250183
 C   -0.5374969899   -2.0129229106   -0.0158583565
 N    0.7648501410   -2.0560404242   -0.0322938186
 O    1.1121963378   -0.6758747696    0.0099502894
 H    0.8586092416    1.7903380767   -0.1537497383
 H   -0.8497707243    1.8235985301   -0.0816044279
 H   -1.1165590749   -2.9255285504   -0.0395084599