19

 C   -0.1080714366    1.5359632076   -0.0766871057
 C   -0.0751222115    0.0092205155    0.0350653117
 C    0.7368866994   -0.5223455918    1.2424575499
 C    0.1305176656   -0.1067403539    2.5985280678
 C    0.8739292472   -1.9777142985    1.1643752882
 C    0.9617392835   -3.1773563734    1.0978895875
 C    1.0800355564   -4.6268896275    1.0182555890
 H    0.9049886497    1.9521809899   -0.1209771569
 H   -0.6320158065    1.8447763630   -0.9865499656
 H   -0.6220687311    2.0011848884    0.7697925763
 H   -1.0962290164   -0.3864400707    0.0999145425
 H    0.3589222324   -0.4130617247   -0.8777400657
 H    1.7436834213   -0.0827480805    1.1781643268
 H   -0.8910161747   -0.4884756701    2.6950868400
 H    0.7204876855   -0.5122464103    3.4245665585
 H    0.1038305677    0.9815556889    2.7018720842
 H    0.7083772792   -5.1089727112    1.9294910411
 H    0.5063453264   -5.0290956197    0.1756438953
 H    2.1227917024   -4.9360392810    0.8840133349