18

 C   -0.0762327513    1.5177291622   -0.1051550923
 C    0.0700902471    0.0154247227    0.0066282791
 C    1.3997747853   -0.6701542897   -0.1234202164
 C    0.6901709588   -0.6705998152    1.2249631620
 C    1.2892062988    0.1367167806    2.3736739986
 O    2.3073720374   -0.5722825861    3.0530912891
 C    0.0948463211   -1.9033762991    1.6705326879
 C   -0.3761866539   -2.9248684244    2.1012304917
 H    0.8037065157    2.0504474586    0.2641350567
 H   -0.2108958790    1.8026009242   -1.1543485266
 H   -0.9478354315    1.8789143711    0.4510595886
 H   -0.7695558760   -0.5355824375   -0.4075988505
 H    1.4593667906   -1.6054727788   -0.6671052819
 H    2.2888026869   -0.0506056511   -0.1894975380
 H    1.7594397256    1.0462585132    1.9922719285
 H    0.4847449873    0.4383707600    3.0625473203
 H    1.9294082950   -1.4176465700    3.3233976678
 H   -0.8077760477   -3.8273418106    2.4573543953