18

 C    0.1202818747    1.5616655834   -0.0987764539
 C   -0.0533402939    0.0392064986    0.0480935673
 C    0.6046789660   -0.5207047846    1.2668387692
 C    0.0686123579   -1.0691439264    2.3647599002
 C    1.1620341946   -1.3866730093    3.3458511964
 O    1.1714496266   -2.7186013592    3.8151215386
 C    2.4398075909   -1.0869916486    2.5309546106
 O    3.5689074278   -1.3931807482    2.8409652583
 N    2.0197570300   -0.4650253879    1.3776963024
 H    1.1763755614    1.8429293322   -0.1541445378
 H   -0.3700554669    1.9173455326   -1.0092748017
 H   -0.3188035120    2.0856332717    0.7550318926
 H   -1.1168199360   -0.2136997660    0.0893651605
 H    0.3524930501   -0.4600211729   -0.8431273594
 H   -0.9865166786   -1.1907602993    2.5578621818
 H    1.1331023043   -0.6759041587    4.1927725849
 H    2.0871182635   -2.9017426204    4.0671735346
 H    2.6422548897   -0.3114343570    0.5991687155