13

 N   -0.0685430313    1.2817389071    0.1716935075
 C   -0.0601915610    0.0132679071   -0.2944134472
 O    0.5642247421   -0.4275335330   -1.2170965242
 O   -0.9244605295   -0.7481167086    0.5014514020
 C   -1.0041230015   -2.0618238173    0.2158690659
 C   -1.9555549342   -2.8351542907   -0.3516547649
 N   -1.5365341545   -4.1603949759   -0.2935365130
 C   -0.3856696994   -4.1068619086    0.2894959092
 O    0.0146203528   -2.8596050669    0.6423492556
 H    0.4547043251    1.9755005246   -0.3308134325
 H   -0.6796256356    1.5536896018    0.9205921544
 H   -2.8933186982   -2.5403085291   -0.7915574257
 H    0.2881219152   -4.9143302805    0.5272348430