22

 C   -0.0645196474    1.4700852994    0.0986374332
 C    0.0414313159   -0.0134021401   -0.0782395229
 C   -0.6329697313   -0.8669421094   -1.1429941057
 C   -0.3987560813   -2.0177185813   -0.1526359107
 N   -0.3384620500   -0.9792467861    1.0171619995
 C    1.0988557460   -0.8435345306    0.5868102293
 C    1.1362993936   -2.2405028356   -0.0270617532
 C    1.4344764946   -3.3012721750    1.0387962147
 C    1.9747373539   -2.4807917026   -1.2808517398
 H    0.5204696739    1.9991077543   -0.6624355785
 H   -1.1055610878    1.8006290288    0.0178093892
 H    0.3085504337    1.7705712077    1.0826308054
 H   -1.6963192362   -0.6153028435   -1.2040327854
 H   -0.2160575420   -0.9291376976   -2.1526668765
 H   -1.0866502428   -2.8598359146   -0.0815659347
 H    1.8350835842   -0.3952348671    1.2480897343
 H    0.8236567567   -3.1449196504    1.9319046250
 H    1.2284719246   -4.3055304578    0.6512286974
 H    2.4886331643   -3.2719676368    1.3367973314
 H    3.0410048643   -2.5029409426   -1.0279956594
 H    1.7282979541   -3.4464723575   -1.7376692533
 H    1.8336136590   -1.7029220915   -2.0352045194