22

 C   -0.1512595881    1.6089565570    0.0479810282
 C   -0.0267238783    0.0766799364   -0.0080876289
 C   -1.4154930677   -0.5599063924    0.0803053906
 C    0.6877712542   -0.4087242129   -1.2960224704
 C    2.1998897030   -0.3439504436   -1.2306055724
 N    2.8274529955    0.9461477391   -0.8951538067
 C    2.8700111629   -0.1626104164    0.0824656668
 C    2.0010073721   -0.0013091469    1.3204061674
 O    0.6657873891   -0.4410064794    1.1379205854
 H    0.8103869835    2.1009674611   -0.1028255797
 H   -0.8294323776    1.9537934915   -0.7395727135
 H   -0.5692051760    1.9115168782    1.0133710569
 H   -2.0083712118   -0.3185032992   -0.8073421023
 H   -1.3277547238   -1.6471618126    0.1592553647
 H   -1.9470714477   -0.1936456004    0.9632810191
 H    0.4162287309   -1.4584748773   -1.4604459750
 H    0.3204616236    0.1564881628   -2.1611052534
 H    2.7099098978   -0.9615191138   -1.9675977601
 H    3.7234929247    1.0301187124   -1.3675926011
 H    3.8283889413   -0.6516233601    0.2378435870
 H    2.3935363295   -0.6243303442    2.1303034693
 H    2.0336524531    1.0451912004    1.6569088979