18

 C   -0.1899878866    1.5360533201   -0.1119288433
 N    0.0554394280    0.1059908209   -0.0051668190
 C    1.1161194976   -0.4842622164   -0.8727218071
 C    1.8203554227   -1.0705697222    0.3431980025
 O    2.2591455366   -2.3639319640    0.3194714513
 C    2.1677448641   -0.0349096262    1.3403750726
 C    0.6849777734   -0.3967261036    1.2086138941
 C   -0.0398766183   -1.0786553817    2.2761747425
 O    0.4976166997   -1.5934543761    3.2366124416
 H    0.7102600242    2.1618259620    0.0184837854
 H   -0.6157859217    1.7576241926   -1.0955671507
 H   -0.9220018259    1.8323597620    0.6453488023
 H    0.7174358674   -1.2469756513   -1.5477707958
 H    1.7075631193    0.2404906665   -1.4473412345
 H    2.6544476119   -2.5804176540    1.1716207814
 H    2.5954412764   -0.4091599799    2.2664806504
 H    2.5087131695    0.9535234311    1.0415773740
 H   -1.1367178185   -1.1436825699    2.1100869424