14

 N   -0.4209554841    0.7062412783   -1.1965734462
 C   -0.1194502587   -0.0309643008   -0.0702049957
 O    0.6178125459    0.3362638408    0.8056406463
 N   -0.8468526043   -1.2494571803   -0.0462897804
 C   -0.6594032688   -2.2872594585    0.8429817578
 O    0.2031405292   -2.3692406545    1.6748677296
 C   -1.6971372323   -3.4391591027    0.7180731674
 C   -2.5923074773   -3.3703304402   -0.4278050724
 N   -3.2682203825   -3.2450338460   -1.3579408543
 H    0.1614977440    1.5207078707   -1.3151592057
 H   -0.6854908989    0.2365720592   -2.0485125754
 H   -1.6109009914   -1.3429552403   -0.7007417341
 H   -1.1300541827   -4.3738495823    0.7006657558
 H   -2.2809828580   -3.4407129834    1.6445768172