17

 N    0.2790556818    1.4673530633    0.2076718273
 C    0.0689220410    0.0984423737    0.0601593693
 C   -1.0868525409   -0.6073240496   -0.0980496994
 C   -2.5331949274   -0.2769798264   -0.1338078086
 C   -3.1529435083   -0.3909707902   -1.5307996602
 O   -4.5253756612   -0.0535983804   -1.4114161918
 O   -0.7154631107   -1.9336287679   -0.2745697685
 C    0.6241293368   -1.9261864279   -0.2083522670
 N    1.1558677104   -0.7628947594   -0.0108988179
 H    1.1770147750    1.6542833245    0.6342771025
 H   -0.4595778289    1.9448552266    0.7061825471
 H   -3.0991057829   -0.9256681112    0.5462405684
 H   -2.6739216494    0.7493564157    0.2227162952
 H   -2.6254043379    0.2856181114   -2.2204785337
 H   -3.0187914456   -1.4170510676   -1.9051472995
 H   -4.9329119408   -0.1355379347   -2.2783431822
 H    1.1271906590   -2.8739889299   -0.3201884013