11

 C   -0.0106429484    1.5412869064    0.0072208720
 C   -0.0020381076    0.0075601467    0.0386346345
 N    0.7626867749   -0.4710182188    1.1925085603
 C   -1.3854195374   -0.5209925592   -0.0019409684
 N   -2.4568084694   -0.9563607172    0.0069496870
 H    1.0204352268    1.9010658908    0.0039236460
 H   -0.5287316127    1.9119345244   -0.8803148015
 H   -0.5184953639    1.9415043142    0.8901319692
 H    0.5041882810   -0.3580550036   -0.8627607195
 H    0.3007068147   -0.1836493372    2.0515530517
 H    0.7814899219   -1.4867029867    1.2042818286