20

 C    0.1797365588    1.4761232520   -0.1357381603
 C   -0.1999034703    0.0100860686    0.1062739028
 C    0.5762323491   -0.5942917934    1.2561934916
 C    0.7502637741   -2.0913542332    1.4826877069
 C    0.4917864695   -3.0544069154    0.3228804015
 C    1.7488951738   -2.8751666333   -0.5565026218
 O    2.2698924848   -1.5747816747   -0.2613796998
 C    1.9230228627   -1.2470832164    1.0613263366
 H    1.2410065609    1.5627033524   -0.3886459046
 H   -0.4008316775    1.9051344268   -0.9584520669
 H   -0.0028998513    2.0872695679    0.7553249297
 H   -1.2755570343   -0.0659374207    0.3120236667
 H   -0.0144835171   -0.5596768367   -0.8088588580
 H    0.4912972144   -0.0295517353    2.1838003372
 H    0.6631806598   -2.4679121606    2.4950643373
 H    0.3948255185   -4.0835040304    0.6789526535
 H   -0.4226103154   -2.8113259980   -0.2272216292
 H    2.5016062021   -3.6418774407   -0.3174089459
 H    1.5466027962   -2.9156769631   -1.6308948004
 H    2.7685344012   -1.0219479660    1.7049904632