20

 C   -0.6789808618    1.1543321793   -0.1490484344
 C    0.1182017206   -0.1458097298   -0.0724649835
 C    1.6144527550    0.0004138724   -0.4897981056
 C    2.0033641276    0.1013338989    1.0119043408
 C    0.6202770549   -0.5145418966    1.3481536260
 O   -0.1546775775    0.0305789860    2.4021851437
 C    0.1601179258   -0.4461247325    3.6808693852
 C    1.4396294589    0.0684259783    4.2145549233
 N    2.4373671101    0.4689548578    4.6375984860
 H   -0.1465623716    1.9861651601    0.3223980099
 H   -0.8602237033    1.4208826290   -1.1954543266
 H   -1.6455543103    1.0558997271    0.3527173234
 H   -0.4358858547   -0.9444365777   -0.5745048094
 H    2.0078522240   -0.9027871707   -0.9629898932
 H    1.8580191196    0.8579796698   -1.1210283739
 H    2.8945930113   -0.4276814768    1.3535604503
 H    2.0585748027    1.1374127239    1.3532882738
 H    0.6898186558   -1.6051822408    1.4757428750
 H   -0.6429409164   -0.1237099846    4.3512351309
 H    0.1993992794   -1.5466640030    3.7085398983