16

 N    0.1795255791    1.4024759111   -0.0764112583
 C    0.0173744683   -0.0117351661    0.0078428029
 C   -0.4432162389   -0.6593576382    1.2769836668
 N   -1.1997226573    0.1991912933    2.1484339121
 C   -2.3756168543    0.5235252865    1.4829661012
 N   -2.5185397442    0.0583648690    0.2971135806
 C   -1.3559182862   -0.7413492112    0.0053984058
 C   -1.5186956639   -1.9110420218   -0.7998217326
 C   -1.6188123912   -2.8989626102   -1.4793589294
 H   -0.3186814445    1.7906432499   -0.8701716385
 H   -0.1739742639    1.8533531384    0.7605713058
 H    0.7678006997   -0.5897605695   -0.5254512840
 H    0.0837752472   -1.4932350620    1.7233345160
 H   -1.2141761598    0.0179475495    3.1407642216
 H   -3.0973170120    1.1757427203    1.9637197201
 H   -1.7220013782   -3.7677896690   -2.0804886101