14

 O    0.4637225607    0.4032630008   -0.5873377773
 C    0.1086577905    1.3997814042   -0.0517258373
 C   -1.1106303357    2.3194600008   -0.0394273180
 C   -0.2903254099    3.1133399373    1.0009200207
 O    0.7959682323    2.1365349412    0.8888818664
 C    0.1390890791    4.4999782014    0.6045493254
 C    1.5525008975    4.8682633551    0.4604242436
 O    0.7286389031    4.6214844665   -0.6854448861
 H   -1.2851501459    2.8329616501   -0.9855822879
 H   -2.0278735424    1.8473521641    0.3141122896
 H   -0.6931649113    3.1067771741    2.0176634892
 H   -0.5855511051    5.2775956893    0.8532443687
 H    1.8529677191    5.9045339114    0.6035250234
 H    2.3123953381    4.1149561639    0.6492211695