16

 C   -0.0908644440    1.4139270069    0.0126392612
 O   -0.0063408114   -0.0049017078    0.0829504620
 C   -1.1797137047   -0.6601868886    0.0377381670
 N   -2.3490113476   -0.0454480496   -0.0654807557
 N   -3.2437787197   -1.0713541743   -0.0758711375
 C   -2.6658059065   -2.2953365095    0.0173263295
 C   -3.4579094146   -3.5617025144    0.0244796131
 C   -1.3066393841   -2.0689904671    0.0941771475
 H    0.9360316302    1.7794314335    0.0620145856
 H   -0.5612749114    1.7347224655   -0.9230868136
 H   -0.6752331614    1.8156668951    0.8474377987
 H   -4.2225405557   -0.8560799889   -0.1485960262
 H   -4.0430351423   -3.6806205276   -0.8947218296
 H   -2.7895702638   -4.4209403879    0.1072906370
 H   -4.1570044638   -3.5993692551    0.8678566047
 H   -0.5206243792   -2.8004186702    0.1782352763