19

 C   -0.3049525749    1.6138233751    0.0187965741
 C   -0.0269063623    0.1077273710   -0.0184571018
 C    0.7940235418   -0.3588477005   -1.2677658539
 C    1.9792754651   -0.4744874645   -0.3085494056
 C    3.1748036701   -1.3631727078   -0.3810792288
 C    3.3363481510    0.1484104326   -0.4487526737
 N    1.0914114200   -0.3486507181    0.8558057646
 C   -1.2687880508   -0.6411354539    0.2240398162
 N   -2.2555575525   -1.2179079836    0.3953384100
 H    0.6148179136    2.1622736424   -0.2043911122
 H   -1.0653955816    1.8900243375   -0.7177930649
 H   -0.6658978467    1.9157781427    1.0069476659
 H    0.4575009429   -1.3132681440   -1.6752746550
 H    0.8686488048    0.3788762017   -2.0685673011
 H    3.4796689605   -1.8626118655    0.5325739308
 H    3.3373483997   -1.9399379971   -1.2859428342
 H    3.6084159190    0.5998431655   -1.3980643542
 H    3.7602983719    0.6470632130    0.4180715809
 H    1.3700597082    0.3390796533    1.5500274129