17

 C   -0.1098034201    1.4473915251    0.0476304601
 C    0.0251204689   -0.0371143911    0.0669602857
 O   -1.1573657082   -0.8116886195   -0.1302165540
 C   -0.4838683988   -1.9609350459    0.5065707893
 C    0.6644912964   -1.0454766542    0.9846001536
 C    1.2672969552   -0.8548192376   -0.3923554498
 N    1.0597216514   -2.0003495892   -1.2397163321
 C    0.1149819249   -2.6800023792   -0.6930117948
 N   -0.3797526789   -3.8688586248   -1.1660559486
 H    0.8605894633    1.9190871084    0.2272476826
 H   -0.4742808300    1.7810233725   -0.9300443144
 H   -0.8130739997    1.7931194708    0.8122253155
 H   -1.1426286341   -2.4912699549    1.1941884453
 H    1.1473177476   -0.9895222925    1.9514834705
 H    2.1960623494   -0.3093422607   -0.5104546284
 H   -0.1367231744   -4.0732447955   -2.1253834458
 H   -1.3369666329   -4.0829223217   -0.9345762046