18

 C   -0.0081941465    1.4383498617   -0.0866955347
 C    0.0392291435   -0.0607181546   -0.1017114654
 C    0.5366517644   -1.0243576714   -1.2029825215
 O    1.8957262351   -1.0191109191   -1.5815764601
 C    0.0657024204   -1.9762524694   -0.0907125532
 O    0.0058060477   -3.3516576134   -0.0681127784
 C    0.5486018506   -0.9913510356    1.0587463271
 N   -0.7759087822   -0.9327588079    1.7556658473
 C   -1.1175632611   -1.0413630833    0.2987148480
 H    0.9914735784    1.8645703468   -0.2244187284
 H   -0.6447568982    1.8214445497   -0.8914220252
 H   -0.4069966723    1.7938433602    0.8680157100
 H   -0.0403983197   -1.0397744810   -2.1329977351
 H    2.4311666697   -0.8635258668   -0.7956519322
 H    0.8420952468   -3.6938349759   -0.4043361201
 H    1.4985470214   -0.9493854459    1.5962170242
 H   -0.9626900780   -1.8249134991    2.2210830066
 H   -2.1380628000   -1.0509632749   -0.0861986489