21

 C    0.0305264664    1.5232390572   -0.1660006963
 C    0.0063833915    0.0101521918   -0.0583809978
 C   -1.1704520227   -0.6451099653   -0.7564369997
 C    1.3330355867   -0.7234941248   -0.0625376962
 C    0.5308161060   -0.6245825052    1.2059567486
 C    0.9646355828    0.0902401537    2.5025650267
 C    0.4013627170   -1.1167442933    3.2766559637
 O    0.3709951723   -1.4151465071    4.4342680242
 C   -0.0847223894   -1.8044166795    1.9866430208
 H    0.9002980540    1.9530977299    0.3392461679
 H    0.0671740783    1.8374032122   -1.2155643274
 H   -0.8680412332    1.9680066112    0.2787244963
 H   -1.1728427601   -0.4014321768   -1.8251938731
 H   -1.1423029766   -1.7347864323   -0.6649573823
 H   -2.1237105351   -0.2990844484   -0.3386005711
 H    1.3850565010   -1.6888113015   -0.5580071690
 H    2.2445159282   -0.1370503919   -0.1354782197
 H    2.0388119327    0.2490741055    2.6441840078
 H    0.4455831865    1.0282854575    2.7290800833
 H   -1.1751085172   -1.8979631881    1.9322494273
 H    0.3538990510   -2.7931324448    1.8157835359