21

 C   -0.0314158041    1.5540338551    0.0664135701
 C    0.0121751041    0.0460864116   -0.0413664964
 C    1.2916974907   -0.6650491337   -0.4505005492
 C    0.7665839361   -0.7755904485    0.9658136506
 O    1.4234568565   -0.0556650524    1.9674495645
 C    0.1950851127   -2.0958286709    1.4463939651
 C    1.2545928477   -3.0461849022    1.9949439662
 C    0.8614941562   -4.5033800320    2.1217290502
 O    2.3559902818   -2.6566254022    2.3281074772
 H    0.8842066645    1.9340603905    0.5238323879
 H   -0.1449377751    2.0130738248   -0.9216433633
 H   -0.8722431698    1.8816429104    0.6875366150
 H   -0.9061936208   -0.4063979423   -0.4100801319
 H    1.2293287322   -1.5208119947   -1.1155632867
 H    2.1758493720   -0.0505812727   -0.5818750266
 H    2.1391525056   -0.6370331180    2.2652812610
 H   -0.5193634243   -1.9165757653    2.2645520531
 H   -0.3710050277   -2.5994549173    0.6544015542
 H   -0.1103666139   -4.6017312745    2.6171576751
 H    0.7527064368   -4.9405415634    1.1219644815
 H    1.6242330689   -5.0526563623    2.6747236425