16

 C   -0.4525178060    1.3540460828    0.0214233958
 O    0.9270446430    0.9714022800   -0.0835848419
 C   -0.0409545215   -0.0497095052    0.0309876172
 C   -0.0761031475   -1.0986050755    1.1543899422
 C   -0.5289545954   -2.1502446577    0.0999974274
 N   -1.9777175878   -2.3942531686    0.0610167418
 C   -2.4207911791   -1.7377714422   -0.9297625884
 O   -1.5749392739   -1.0040413353   -1.7040646659
 C   -0.2974827471   -1.1109624136   -1.0458026568
 H   -0.7325907995    1.8351701228    0.9573123134
 H   -0.8901376926    1.7800338558   -0.8794663380
 H    0.9174738801   -1.2991980429    1.5645743052
 H   -0.7797457440   -0.9235715346    1.9707081287
 H    0.0192820704   -3.0937450227    0.0955541302
 H   -3.4560427627   -1.7054445721   -1.2506281877
 H    0.4835909633   -1.2488078710   -1.7935317431