14

 O   -0.1776596631    0.0124004223   -0.2313455940
 C   -0.0791119050    1.2003575921   -0.0754926717
 C    1.2492503536    1.9216474417    0.0774566905
 C    1.3556078761    2.7688653986    1.3704296315
 C    2.7518343770    2.4574556002    1.9091061967
 O    3.3419623018    3.0394708948    2.7726151005
 C    3.2741133622    1.2152691228    1.1479931392
 O    4.2657167348    0.5767738048    1.3983378947
 N    2.3628231588    1.0010946404    0.1515685272
 H   -0.9670079733    1.8698883640   -0.0557762413
 H    1.3333852945    2.5856958656   -0.7994019717
 H    1.2147483252    3.8387561070    1.2122316161
 H    0.6256005210    2.4434652702    2.1213919588
 H    2.3838996864    0.1676880254   -0.4168859965