17

 O   -0.2115206715   -0.1265303719   -0.1787595764
 C   -0.1715447150    1.0751715647   -0.0837411349
 C    1.0969192830    1.7989248718   -0.3149541760
 N    2.0766446639    2.3853806078   -0.4982978144
 C   -1.3536022381    1.9578099539    0.2883712405
 C   -1.7688633646    2.8801067014   -0.8984563832
 C   -2.8873416276    2.0734463184   -1.5740546296
 C   -3.5899377705    1.4335913502   -0.3679306848
 N   -2.5298626194    1.1653263019    0.6265160085
 H   -1.0086317894    2.5751141083    1.1325178268
 H   -2.1586724661    3.8189298998   -0.4947830143
 H   -0.9340720441    3.1288801897   -1.5580918926
 H   -3.5473991379    2.6958126515   -2.1834236180
 H   -2.4598007557    1.2989814633   -2.2208682197
 H   -4.3236129940    2.1316258672    0.0565594691
 H   -4.1239949175    0.5122641293   -0.6146856928
 H   -2.2757717154    0.1834683028    0.6220520920