19

 C   -0.0460301323    1.4646996821    0.5523278728
 O   -0.0803359107    0.0585716594    0.4836403334
 C   -1.2276709319   -0.4276107123   -0.1880466314
 C   -1.1333267458   -1.9283000265   -0.2528396308
 C   -1.3697392864   -2.7411015421    1.0226947382
 C   -2.3891019639   -2.7798138107   -0.0580289534
 O   -3.5965573165   -2.0947194141    0.0743028572
 C   -0.1366212108   -2.4900186131   -1.2035632921
 O    0.1104919686   -3.6686340572   -1.3115185925
 H    0.8653255022    1.7436649297    1.0864902209
 H   -0.0262786812    1.9237877165   -0.4489329654
 H   -0.9153467245    1.8688213072    1.0950204943
 H   -2.1490575629   -0.1242939092    0.3270494086
 H   -1.2731993463   -0.0088846162   -1.2090575139
 H   -0.7340179570   -3.6087368890    1.1584879069
 H   -1.5908181465   -2.1581184024    1.9097963111
 H   -2.4227822445   -3.6728529040   -0.6802420024
 H   -4.0998960461   -2.5138202229    0.7801443964
 H    0.3751351364   -1.7355209551   -1.8400868978