18

 C   -0.0431271890    1.5014666185   -0.0044718799
 C    0.0235858300   -0.0143324653    0.0048517032
 O    1.0829584196   -0.6080584412    0.0190064022
 C   -1.2727856840   -0.7448258456   -0.0034023457
 C   -1.3881755930   -2.0807266132    0.0106992365
 C   -2.8351213769   -2.4952023198   -0.0342931823
 N   -3.6228533688   -1.2405300695   -0.0189146144
 C   -3.4706836622   -0.4412932027    1.2000423592
 C   -2.6388925840   -0.1305962409    0.0013368755
 H    0.9650056499    1.9131377259    0.0471540376
 H   -0.5362892383    1.8550366482   -0.9177811012
 H   -0.6406132853    1.8656583283    0.8389851465
 H   -0.5515834349   -2.7668510805    0.0621659331
 H   -3.0637957364   -3.0556512017   -0.9512492777
 H   -3.1202095228   -3.1418248242    0.8056692659
 H   -4.3355438385    0.1700245632    1.4432200426
 H   -2.9583755498   -0.8794415643    2.0547392246
 H   -2.8558253855    0.7387541147   -0.6132472556