14

 C   -0.0562615266    1.5490754757   -0.0699612191
 C   -0.0150974484    0.0290334965    0.0691611023
 N   -1.3524681905   -0.5606245474    0.0251265955
 N   -1.9505161977   -1.0700241261    1.1006892410
 N   -3.1285237181   -1.4753031998    0.7134244655
 C   -3.1985085180   -1.1861658471   -0.6118182680
 N   -2.0877636685   -0.6063036755   -1.0695092896
 C   -4.3275972696   -1.4711106764   -1.4284860499
 N   -5.2484886531   -1.7041674148   -2.0865701727
 H    0.9633347051    1.9423169396   -0.0405494942
 H   -0.5126361412    1.8383686372   -1.0194166237
 H   -0.6250839188    2.0000318193    0.7473562812
 H    0.5639008453   -0.4289599094   -0.7362854739
 H    0.4052023102   -0.2812512318    1.0269490555