20

 C   -0.2269305032    1.5249263491    0.0868068625
 C   -0.0767857498    0.0018239992    0.0141794998
 C    0.7812255233   -0.5552156254    1.1450133589
 C    0.2159805418   -0.5736917075    2.5946785398
 N    0.5598072285   -2.0256342824    2.7690517272
 C   -0.6158247241   -2.9226662491    2.5477057446
 C   -0.2951272550   -2.9707964703    1.0393180640
 O   -0.7839669304   -3.4855227360    0.0784152635
 C    0.9427031830   -2.0928217841    1.2988231299
 H    0.7471904374    2.0225316734    0.0247910056
 H   -0.8464121453    1.9000045489   -0.7330553920
 H   -0.6974377074    1.8350843813    1.0264684945
 H   -1.0673127776   -0.4688010916    0.0344272504
 H    0.3705568311   -0.2811074872   -0.9469512368
 H    1.7691039627   -0.0843213238    1.1181379787
 H    0.7285172764    0.0649019607    3.3185616994
 H   -0.8611242029   -0.3708344777    2.6579782552
 H   -0.4965562142   -3.8936045894    3.0423946471
 H   -1.5912774826   -2.5077772730    2.8256170474
 H    1.9028718382   -2.5392792352    1.0234105102