21

 C   -0.0840162848    1.4909760768    0.0159166332
 C   -0.0001911070   -0.0012845380   -0.0311607176
 C   -0.1423403830   -0.7853583405   -1.1024877537
 C   -0.0150077102   -2.2472712071   -0.7808238707
 O    0.8966366183   -2.9517572044   -1.6232328713
 C    0.4378647292   -2.2660423577    0.7322889485
 C   -0.3141780264   -3.3112166403    1.5551062279
 O    1.8412537352   -2.5138862944    0.7876496256
 C    0.2314333338   -0.8139976719    1.2231035855
 H    0.8388914010    1.9215908792    0.4246039425
 H   -0.2550135779    1.9201845724   -0.9748300281
 H   -0.8969724959    1.8200757020    0.6758121652
 H   -0.3400869492   -0.4391381244   -2.1119925887
 H   -0.9641075886   -2.7826303597   -0.9056276890
 H    1.6891826280   -2.4032813000   -1.6722288699
 H   -0.1573791825   -4.3129225908    1.1380041248
 H    0.0410421844   -3.3130115091    2.5899406482
 H   -1.3918056878   -3.1142893762    1.5564729570
 H    1.9881944917   -3.3057150119    0.2542600640
 H    1.1075316274   -0.4771998670    1.7888785180
 H   -0.6298811658   -0.7367665470    1.8999348186