18

 C    0.1266660009    1.5738059717    0.1915364918
 C   -0.0114634559    0.0866032549    0.0604150664
 C   -1.1443592394   -0.6095598982   -0.0899096161
 C   -2.5489014156   -0.0917515462   -0.1715174811
 N   -1.0475399330   -2.0136162677   -0.1853020420
 C    0.0068712144   -2.7521510564    0.3210573513
 O   -0.0482767625   -3.9392695603    0.5123602677
 O    1.1098028712   -2.0345403162    0.6221458404
 C    1.2623185260   -0.7175713960    0.0611061836
 H    0.7890440224    1.9799084664   -0.5849784051
 H   -0.8281801307    2.0958573419    0.1095726285
 H    0.5739114843    1.8477357445    1.1561690043
 H   -3.0279550399   -0.4282391681   -1.0994959908
 H   -3.1547881068   -0.4685655913    0.6616400663
 H   -2.5855000146    0.9967481743   -0.1531829580
 H   -1.8928589206   -2.5529955798   -0.2860720100
 H    1.6687780332   -0.8221770224   -0.9578051646
 H    2.0333829766   -0.2404992812    0.6726588874