17

 C    1.1714594126   -0.6924504629   -1.1221968177
 O    0.3114072584   -0.2376703878   -0.0895898434
 C    0.6229186061   -0.7233458157    1.1957125287
 C    1.7981957618   -0.0050589751    1.8216343743
 O    1.5869130470    1.3943453622    1.8479162314
 C   -0.5707731275   -1.0734395110    2.0268022358
 C    0.3389828753   -2.1692288507    1.5033708436
 H    1.1805424840   -1.7886366248   -1.1839911932
 H    0.7803617673   -0.2852428210   -2.0574291646
 H    2.2043526815   -0.3431381101   -0.9913989472
 H    1.9315597926   -0.3392149430    2.8558118968
 H    2.7267691807   -0.2538974059    1.2802360214
 H    1.1601539983    1.6112702540    1.0100425751
 H   -0.5477299383   -0.8322389041    3.0835591774
 H   -1.5392821063   -0.9681958144    1.5522970113
 H   -0.0433454048   -2.7843168427    0.6963773437
 H    0.9881821014   -2.6903027070    2.1992705465