16

 C   -0.1250822876    1.4945970810    0.0695758726
 C   -0.0296545374    0.0123251231   -0.0506441895
 C    0.1752009758   -0.8118392045   -1.1332434878
 N    0.4120415141   -0.4300612685   -2.4728757666
 C    0.2011097852   -2.1705716791   -0.6707398778
 C    0.0159911458   -2.1172625225    0.6887950851
 O   -0.0604803576   -3.0713395424    1.6535322444
 N   -0.1106942946   -0.8202028998    1.0717734565
 H   -0.3050771668    1.9465408105   -0.9112140268
 H   -0.9595397195    1.8005959099    0.7144872492
 H    0.7844813943    1.9618391506    0.4736075729
 H    0.1888695908    0.5448213106   -2.6339604636
 H   -0.1318509005   -0.9874814128   -3.1221020064
 H    0.3565958450   -3.0554924138   -1.2685816926
 H    0.0744199828   -3.9277821912    1.2376418699
 H   -0.2772074699   -0.5236979611    2.0169120604