13

 N   -0.1480026543    1.2780627678    0.0662410715
 C    0.0278221880   -0.0715413378    0.1368532634
 O    1.1059845459   -0.6192518541    0.2232627807
 C   -1.2464996515   -0.8474745961    0.0984603309
 N   -1.3899736485   -2.1391238085    0.1482562024
 C   -2.7458501091   -2.3391244487    0.0793887480
 O   -3.2848845413   -3.5672632035    0.1035336920
 C   -3.3882008083   -1.1415138606   -0.0111843246
 O   -2.4164137648   -0.1736222900    0.0010128609
 H    0.6700464687    1.8628610647    0.0872887192
 H   -1.0595442029    1.6946668792   -0.0044200486
 H   -2.5529003799   -4.1928461698    0.1750261740
 H   -4.4110856019   -0.8221785328   -0.0848262098