12

 C    0.0183457987    1.6094439486    0.0114916991
 N    1.4898107895    1.9397422956    0.0481914613
 C    1.9915830499    0.8176539342   -0.2514465596
 O    2.5931229207   -0.0053462639    0.7146484960
 C    1.3285978241   -0.7793143043    0.4784050760
 C    0.0172214627    0.0589174388    0.0208980473
 C    1.1326318813   -0.3254855759   -0.8907990574
 H   -0.3928881245    2.0573811081    0.9207975942
 H   -0.5376042451    2.0041607669   -0.8520615096
 H    1.2960802909   -1.7506241366    0.9566377895
 H   -0.9135228780   -0.5032171035    0.0584210200
 H    1.1943994897   -0.7961072179   -1.8620470468