18

 C    0.0324791752    1.5857041677   -0.0738894773
 C    0.0687571843    0.0673684851    0.0137040928
 C    1.1316471151   -0.7097820499   -0.8159638765
 O    2.3986256901   -0.1119411163   -0.4125853119
 C    2.1923396567   -0.7518664967    0.8468614683
 C    1.2255367478   -1.7687830000    0.3419821699
 C    0.7016289653   -0.6355583572    1.2267291201
 C    0.1982488658   -0.6929984705    2.6373993968
 H    1.0415092733    1.9953189191    0.0151161763
 H   -0.3881245868    1.9155956067   -1.0305887536
 H   -0.5876538697    2.0124741787    0.7220867581
 H   -0.9181149475   -0.3721853287   -0.1732192743
 H    1.0526751277   -0.8739082422   -1.8889670012
 H    3.0100784888   -0.8017207293    1.5544503302
 H    1.1642790007   -2.8468852504    0.3987473072
 H    0.8275619597   -1.3416916454    3.2571124664
 H    0.1960192848    0.3008322556    3.0995941313
 H   -0.8241503314   -1.0856994964    2.6834128172