19

 C   -0.1126193987    1.5350283378   -0.0123307228
 C    0.0741108223    0.0221060017   -0.0022486372
 C    0.8867583764   -0.5380161641   -1.2108176897
 N    1.6574635125   -1.5996751732   -0.5605320382
 C    1.6514100422   -1.3092346621    0.7862001396
 N    0.8038211473   -0.4393964643    1.1999645374
 C    2.6302761713   -2.0198837757    1.6765870721
 C    2.4771806434   -1.8226018186    3.1628887196
 O    3.4947864433   -2.7048286523    1.1708959792
 H    0.8573487111    2.0428563268   -0.0175823850
 H   -0.6721940270    1.8529066934   -0.8985120360
 H   -0.6608670200    1.8584598105    0.8763140787
 H   -0.9164987448   -0.4555715062    0.0225070835
 H    0.2502601946   -0.9285376051   -2.0088666759
 H    1.5422122272    0.2355547999   -1.6397220436
 H    2.5168724932   -1.9525157352   -0.9549193521
 H    1.5524786378   -2.3041657705    3.4998326650
 H    3.3309709761   -2.2604220779    3.6808128564
 H    2.3724506816   -0.7605138749    3.3972407991