21

 C    0.0288189339    1.5346062401   -0.2861885030
 C    1.3075225700    0.7746959518   -0.0385014354
 O    2.0336076528    0.9477630526    1.1476084153
 C    1.5637642992    0.2692004373    2.3230272278
 C    0.4145776550    1.0477308331    3.0075998578
 C   -0.8895733640    0.4541729513    2.3983019511
 C   -0.4025772926   -0.5667950645    1.3417859180
 C    0.9094217241   -1.0748364223    1.9781505596
 C   -0.0071552076    0.0421596728   -0.0107276724
 H   -0.3046682874    2.2171874607    0.4865271241
 H   -0.1799056611    1.8694828470   -1.2967683564
 H    1.9805511011    0.6230136208   -0.8774234740
 H    2.4474214645    0.1833470627    2.9596394898
 H    0.4483044970    0.8933950087    4.0905692415
 H    0.5314655327    2.1191425095    2.8285449416
 H   -1.4639573114   -0.0718612019    3.1671861131
 H   -1.5521893116    1.2108687813    1.9730776632
 H   -1.1418070970   -1.3551643100    1.1825314848
 H    1.5171967376   -1.6868971137    1.3067208221
 H    0.7203529738   -1.6408189027    2.8970587664
 H   -0.2182767189   -0.5956595945   -0.8639783050