12

 N    0.0121007769    1.4404480471    0.1694832451
 C    0.0285736162    0.0539458125    0.0408429831
 C   -1.0296901022   -0.8271012100   -0.0057129222
 O   -0.6439860277   -2.1590407282   -0.0408417565
 C    0.6967030184   -2.0871795642   -0.0251219350
 C    1.1718845932   -0.8070796857    0.0274364883
 O    2.4903570090   -0.8298874690    0.0325772888
 N    2.8129910692   -2.3268311285   -0.0241798525
 N    1.7262047184   -2.9548369016   -0.0537749241
 H    0.7872007362    1.8943748768   -0.2947300707
 H   -0.8616243034    1.8667293953   -0.1076209565
 H   -2.0943123842   -0.6622273345   -0.0072236879