18

 O   -0.4668904877    0.3306669205   -1.0448303009
 C    0.2264897190    0.5051439089   -0.0795021753
 C    1.1106266506    1.7333186181    0.1340622793
 C    0.6669825116    2.4754199732    1.3819799658
 C    0.6521614492    3.9420673716    1.4480892428
 O   -0.5565289341    3.2001253126    1.2830641532
 N    2.4749105372    1.2510644236    0.3356590037
 C    3.2545018785    0.9817757465   -0.8724300188
 C    3.5533924251    2.1689008396   -0.0265497813
 H    0.2936407697   -0.2421757947    0.7422703985
 H    0.9923507666    2.3856924290   -0.7460622789
 H    0.7966667041    1.9157792940    2.3089318821
 H    0.7698721170    4.4391738386    2.4096078472
 H    0.9637257320    4.5227265997    0.5808659075
 H    3.8893289552    0.1019673607   -0.8320878721
 H    2.7799204619    1.1607512256   -1.8350951993
 H    3.2808396474    3.1440859056   -0.4249819867
 H    4.4105936866    2.1715980569    0.6400233732