15

 O   -0.1680508396    1.3280053951   -0.0161763699
 N    0.0045246148   -0.0716591922    0.0204322221
 C   -1.1131967087   -0.6634524365   -0.0561153134
 C   -2.5771163609   -0.2451118741   -0.0442900346
 C   -2.9354125083   -1.7402198453    0.0763015134
 C   -2.3850735415   -2.4983432784   -1.0739804692
 O   -2.3688628806   -1.9153558881   -2.3417337371
 C   -1.4133545525   -2.1167906057    0.0255119868
 H    0.7372421773    1.6435157846    0.0737906455
 H   -2.8128513800    0.3355029443    0.8513284576
 H   -2.9540562395    0.2721930576   -0.9281111818
 H   -3.6984599578   -2.1443299415    0.7287707810
 H   -2.6275165018   -3.5623524016   -1.0671664187
 H   -1.5254183081   -2.1223490913   -2.7578292878
 H   -0.8446405528   -2.8576893368    0.5735364161