16

 O   -0.0026030307    1.4193192356    0.0068837784
 C   -0.0099597202    0.0049934105    0.0021657458
 C   -1.4177569889   -0.4945659555    0.0122094029
 C   -2.5268940864    0.2501289140    0.0232844185
 C   -3.7837753082   -0.5743778884    0.0312048976
 C   -3.2609529567   -2.0200377788    0.0230547249
 O   -3.9310827826   -3.0179213437    0.0262754051
 C   -1.7224417617   -1.9708757326    0.0105866590
 H    0.9116959778    1.7153201922   -0.0003515770
 H    0.5091398729   -0.3994479689   -0.8857650400
 H    0.5238831294   -0.4054333967    0.8785302085
 H   -2.5238366548    1.3320953895    0.0263473100
 H   -4.4176341828   -0.4124653018    0.9131949677
 H   -4.4316710830   -0.4077676015   -0.8396499098
 H   -1.3393507482   -2.5021124864   -0.8712907222
 H   -1.3248890058   -2.5070425076    0.8830227506