13

 C    0.0871344811    1.4849514710    0.0611854890
 C   -0.0412687165    0.0074573979    0.0430060694
 C   -1.1184210010   -0.8343984555   -0.0836190580
 C   -0.6014683717   -2.1792964061   -0.0267938811
 C    0.7349812632   -2.0488339637    0.1282715895
 O    1.0855061735   -0.7287659054    0.1718098584
 C   -2.4672011357   -0.4334325314   -0.2388624740
 N   -3.5699533346   -0.1016503570   -0.3657444838
 H    0.7309908606    1.8351994339   -0.7527992461
 H   -0.8977279254    1.9416780620   -0.0522922284
 H    0.5269425424    1.8313446319    1.0026683810
 H   -1.1691248256   -3.0926555690   -0.0945635587
 H    1.5466884198   -2.7502677488    0.2207234128