18

 C   -0.0392902825    1.6205967665    0.0006349534
 C    0.0330837664    0.1089316818   -0.0682951021
 C    0.7201491814   -0.6228514811   -1.2441057215
 C    1.1463585985   -1.7140837924   -0.2052365364
 C    2.6543040595   -1.4494675933   -0.4110188533
 C    2.3666040730   -0.1717131502    0.3390704896
 N    1.0234180474   -0.5923702327    0.8482626350
 C    2.2127399593   -0.2020582733   -1.1738795215
 O    2.9202200010    0.6637453203   -1.9740386736
 H    0.9239098958    2.0800909911   -0.2394769784
 H   -0.7797531683    2.0028075354   -0.7099930802
 H   -0.3354994679    1.9440028751    1.0040567287
 H   -0.9471479125   -0.3369968285    0.1381108414
 H    0.2619108060   -0.8225348587   -2.2138140098
 H    0.6427015270   -2.6626598578   -0.0306624002
 H    3.5329452258   -2.0785665165   -0.4419732077
 H    3.0352896735    0.5004951120    0.8606256779
 H    3.0885594365    0.2329586323   -2.8192281613