17

 C   -0.0142314052    1.4594943256    0.0690750210
 C    1.4257052203    1.9917738434   -0.0317251375
 N    2.0967162230    1.3086122595   -1.1261935245
 N    3.2573463162    1.7501213832   -1.6528636589
 N    3.6193298427    0.8865524288   -2.5606517828
 C    2.6991132528   -0.1148099369   -2.6153345352
 C    1.7089286269    0.1375428553   -1.6912255670
 C    0.4196513946   -0.5150487599   -1.2694465291
 N   -0.1033586139    0.0022661009   -0.0005650436
 H   -0.4621708923    1.8059592252    1.0047502837
 H   -0.6145979286    1.8711014404   -0.7514006960
 H    1.4532023810    3.0676292810   -0.2228592728
 H    1.9736723440    1.8011681654    0.8990827086
 H    2.7992181954   -0.9388675239   -3.3034674912
 H   -0.3422637792   -0.3519378769   -2.0443947022
 H    0.5471109582   -1.5981297993   -1.1861899479
 H    0.4143252641   -0.4069778316    0.7718003953