23

 C   -0.0465245551    1.5283928181   -0.0552430461
 C   -0.0036061680   -0.0041980526    0.0242631725
 C    0.8179005908   -0.4541238156    1.2403139545
 C   -1.4347408246   -0.5855209767    0.0441295586
 O   -2.1125083023   -0.0415845151   -1.0821439787
 C   -3.3579445148   -0.6580680614   -1.3527928158
 C   -3.1644880363   -2.1146584581   -1.7764472965
 C   -2.2384650268   -2.7913079443   -0.8017840681
 C   -1.4786706003   -2.0944141710    0.0408412492
 H    0.9664597266    1.9371754796   -0.1284380544
 H   -0.6217630732    1.8619649288   -0.9198025220
 H   -0.5109274194    1.9512585945    0.8443623279
 H    0.4768534479   -0.3859188769   -0.8862146658
 H    0.3221872305   -0.1737986970    2.1777485390
 H    0.9884547716   -1.5338420490    1.2591803429
 H    1.7991642233    0.0306070202    1.2323625901
 H   -1.9261382450   -0.2217344582    0.9699002874
 H   -4.0078123803   -0.6142531951   -0.4631433654
 H   -3.8275881963   -0.0650079675   -2.1429354357
 H   -4.1340008012   -2.6283569206   -1.8066992553
 H   -2.7570213323   -2.1635148419   -2.7955220111
 H   -2.2189798541   -3.8780303772   -0.7849023829
 H   -0.8633133706   -2.6038946731    0.7755115857