18

 O    0.0234516085    1.3529297877   -0.1148392993
 C    0.0523566009   -0.0465516497    0.0471878128
 C    0.5753991778   -0.5339659116    1.4189058143
 C   -0.0155750797   -1.9472011317    1.5733534558
 C   -1.4115279244   -1.8556370046    0.9325490262
 C   -2.4449976965   -0.9855910649    1.6798203148
 O   -2.2865678322    0.1066638901    0.7413609166
 C   -1.3507552665   -0.6658465642   -0.0567932068
 H   -0.7512646393    1.6497959926    0.3827202358
 H    0.6848709539   -0.4448239277   -0.7560870452
 H    1.6654285134   -0.5079486561    1.4849865215
 H    0.1874501546    0.1364067764    2.1949275524
 H    0.5905041797   -2.6742924587    1.0200427589
 H   -0.0519409116   -2.2877041740    2.6131372067
 H   -1.7918121052   -2.8090666895    0.5655894546
 H   -3.4727794186   -1.3669523484    1.6719906031
 H   -2.1797503818   -0.6928117128    2.7035065239
 H   -1.7109180430   -0.7876088730   -1.0825793261