20

 C   -0.5524715820    1.0694869005   -0.2541012549
 C   -0.2067989493   -0.4037595110   -0.0013140897
 C    0.5353203449   -1.0242596440   -1.2259087221
 N    1.5381187210   -1.9156248233   -0.6262777643
 C    1.7155408880   -1.5519425426    0.6789099413
 C    0.7648406417   -0.7046135486    1.1438736214
 C    0.6999575573   -0.3411992656    2.5597034942
 C   -0.4981449917    0.4606408123    3.0525870335
 O    1.5772256463   -0.6692549351    3.3474226394
 H    0.3580501488    1.6707769316   -0.3479328980
 H   -1.1249447841    1.1750126006   -1.1827988728
 H   -1.1568908207    1.4925724114    0.5510963193
 H   -1.1470739005   -0.9520931980    0.1585724039
 H   -0.1310438939   -1.5742074996   -1.8960230834
 H    1.0242724333   -0.2304657781   -1.8098839678
 H    2.3283472361   -2.2149972869   -1.1762961421
 H    2.5208728905   -1.9760896420    1.2642281951
 H   -1.4408876975    0.0905929456    2.6357452177
 H   -0.5281016705    0.4108557854    4.1419658538
 H   -0.3993175180    1.5110202376    2.7558685457