19

 C   -0.6719227764    1.2916707308   -0.0079784085
 C    0.0653983165   -0.0395546400   -0.0298893089
 N    1.3751209510   -0.0133739616   -0.7787427146
 C    2.0885767391   -0.5269926846    0.4104651019
 C    3.1500623187   -1.5934946874    0.4430712754
 C    3.4902293114   -0.1677123656    0.8125685519
 C    0.8407964888   -0.4522660057    1.2122318071
 N    0.6179862249   -0.6650654079    2.4393657378
 O   -0.7458874713   -0.4798619796    2.7475779435
 H   -0.0077793385    2.0909587598    0.3313614818
 H   -1.0235159290    1.5442407263   -1.0133478894
 H   -1.5316082001    1.2374788111    0.6650837075
 H   -0.6080740382   -0.8405107187   -0.3634984241
 H    1.3851949250   -0.6754806462   -1.5489114053
 H    3.0898837424   -2.3382157587    1.2294745999
 H    3.5075541638   -1.9663168957   -0.5121361735
 H    4.0626276918    0.4171733252    0.1006867374
 H    3.6646991640    0.0690439884    1.8565181248
 H   -0.7648617640   -0.6570078198    3.6939240254