17

 C   -0.0451816960    1.4811948651    0.0653951995
 N    1.4798722952    1.3020818069    0.0788791759
 C    1.1818165780    0.1020454067    1.0162746290
 C    0.0953380463   -0.0539716462   -0.0805083339
 C   -0.8712038523   -0.9236486820   -0.8407152179
 O   -0.7574384707   -0.3755852725   -2.1746127547
 C    0.4790785658    0.3645617672   -2.3777315092
 C    1.2283942833    0.2422769428   -1.0557095474
 H   -0.4411995132    1.8646962850    1.0093093999
 H   -0.4194944862    2.0650446410   -0.7752261592
 H    1.9863648263   -0.6364980282    1.0539743454
 H    0.8693131916    0.4142690563    2.0155798803
 H   -0.5798471022   -1.9840128587   -0.8277034926
 H   -1.9203203150   -0.8374242601   -0.5434600352
 H    1.0359232766   -0.1065084089   -3.1947850115
 H    0.2275784951    1.3854486590   -2.6824191534
 H    2.0588148375   -0.4666923235   -1.1031920452