19

 C   -0.0621556702    1.5466015733   -0.0111487682
 C    0.0234182756    0.0382175584    0.0142914934
 C   -1.2956778858   -0.6984068646    0.3707943609
 O   -1.0792393816   -2.1175092404    0.2802133091
 C   -0.6409528826   -1.4334524721    1.4680667848
 C    0.7221920841   -0.7653228424    1.1720045357
 C    1.6311846774   -1.4893513445    0.1440660012
 C    0.9431131924   -0.7019208368   -1.0250407838
 O    0.3364780111   -1.4270599068   -2.0569945701
 H    0.9352658421    1.9985298553   -0.0228090289
 H   -0.5954797183    1.8904744810   -0.9057625033
 H   -0.5937444964    1.9374064524    0.8646245155
 H   -2.3167901719   -0.3557630696    0.2387597640
 H   -1.0308633783   -1.8153393452    2.4049827846
 H    1.1782057565   -0.2476244790    2.0158176873
 H    2.6939288584   -1.2650177272    0.2615234305
 H    1.5018970894   -2.5720885275    0.0858670803
 H    1.6296240392    0.0004461696   -1.5084657296
 H   -0.2339667312   -2.0750489539   -1.6235377535