16

 O   -0.0626743470    1.3627489190    0.0825042445
 C    0.0063993554   -0.0239353828    0.0544719961
 C   -0.4665844974   -0.7698213366    1.2861855193
 C   -1.3356919166   -0.7725494648    0.0626660683
 N   -2.4824503935    0.0656446007   -0.0288518806
 C   -3.7002360769   -0.4164532274   -0.4032334523
 O   -3.9573872588   -1.5874937352   -0.5807283545
 C    1.0842238350   -0.5498928424   -0.8034837003
 O    1.7802148471    0.1923322001   -1.4612669226
 H    0.5716813979    1.6537508845   -0.5939937332
 H    0.0404164647   -1.6885783970    1.5620541168
 H   -0.7600746324   -0.1306579326    2.1112492141
 H   -1.4429648328   -1.6949891416   -0.4965331825
 H   -2.3149844495    1.0622859944   -0.0151627059
 H   -4.4418473729    0.3968364669   -0.5217684886
 H    1.2027182576   -1.6511984951   -0.8273695287