20

 C    0.0332124308    1.8287966865    0.2188388641
 C   -0.0215861977    0.3067164356    0.0571392689
 C    0.6921821072   -0.4124364621    1.2138381273
 C    0.7750645126   -1.9405991298    1.0288695307
 C    1.4728739073   -2.5965912726    2.1274498560
 C    2.0520650305   -3.1104877311    3.0470049458
 N   -1.4090090791   -0.1343534468   -0.0832824958
 C   -1.8503856911   -0.9168778278   -1.1041457567
 O   -1.1541931912   -1.3851081492   -1.9808897251
 H    1.0698276223    2.1730385023    0.2759662825
 H   -0.4495923080    2.3268165787   -0.6263112265
 H   -0.4719257644    2.1477089598    1.1388328524
 H    0.4576295505    0.0229559930   -0.8847241297
 H    1.7058900148   -0.0073754101    1.3052677996
 H    0.1827822546   -0.1885594276    2.1598358054
 H   -0.2364037016   -2.3534812497    0.9384309089
 H    1.2761577855   -2.1681368303    0.0799404623
 H    2.5623524915   -3.5796118377    3.8511485356
 H   -2.0885385045    0.2051124339    0.5806349407
 H   -2.9439077098   -1.0884275351   -1.0462108666