15

 N   -0.0030148278    1.3560836585    0.1284277860
 C    0.0001890446   -0.0164433230    0.0344825571
 N   -1.0777881387   -0.7273254524    0.0185748362
 C   -0.7180577639   -2.1562684970   -0.0021461525
 C    0.7887510210   -2.1822121095   -0.0202170114
 C    1.9079149551   -2.9415556681   -0.0427509599
 O    3.0135883580   -2.1269999145   -0.0275202584
 C    2.5841185271   -0.8346327465    0.0068901857
 C    1.2258033560   -0.8210932725    0.0111879915
 H    0.7717309410    1.8343962126   -0.3044748971
 H   -0.9013887176    1.7757284665   -0.0648077208
 H   -1.1406190629   -2.6603406239    0.8764708568
 H   -1.1667760291   -2.6356791825   -0.8812484740
 H    2.1194144854   -3.9971775377   -0.0681288784
 H    3.3601481917   -0.0880511800    0.0309038594