14

 N   -0.0683931166   -1.1632441680   -0.1617724711
 C   -0.0338535760   -0.0137532089   -0.0535409773
 C    0.0241241659    1.4433155183    0.0764876812
 N   -0.1426857151    1.9593094584    1.4760938377
 C    1.0969767935    2.7410043890    1.3435503666
 C    2.2433605198    1.8083559854    1.1989704979
 C    1.4099020671    2.1210311492   -0.0353766655
 C    1.9363215423    2.6834841904   -1.2292186638
 N    2.3485806692    3.1548425291   -2.2031591085
 H   -0.6788901845    1.8979921144   -0.6266545366
 H   -0.9659147988    2.5483257289    1.5369464346
 H    1.1760256111    3.7720376176    1.6627798387
 H    3.2275341147    2.2626913165    1.1793298387
 H    2.1872283873    0.8161364596    1.6361815774