21

 C    0.0535901658    1.5064431311    0.0914155724
 C   -0.0771706657   -0.0202267953    0.0039545824
 C   -1.5503147785   -0.4485270138   -0.0393217735
 C    0.6930984774   -0.5720386197   -1.1943578274
 C    2.2436999156   -0.4379077122   -1.2342041933
 C    2.3145081016   -1.8580161759   -1.8563226821
 C    0.8708023856   -2.1113032162   -1.3461134116
 H    1.1019324093    1.8168668926    0.1480171191
 H   -0.3890017625    1.9869749964   -0.7896027930
 H   -0.4601989268    1.8987491607    0.9754168499
 H    0.3744124235   -0.4513471727    0.9105880636
 H   -2.0501270828   -0.0377398431   -0.9250041245
 H   -1.6505635419   -1.5380993725   -0.0763445894
 H   -2.0933477946   -0.0918664345    0.8422960329
 H    0.2653620610   -0.1593319939   -2.1181844122
 H    2.6748436236    0.3913220134   -1.8006558491
 H    2.6633957376   -0.4206838887   -0.2222025801
 H    2.3562498612   -1.8192058347   -2.9487554940
 H    3.1027453770   -2.5281908746   -1.5051624971
 H    0.8706610603   -2.6058102604   -0.3683346681
 H    0.1819401869   -2.6472243440   -2.0038609953