14

 O   -0.2320691296    1.3982819123    0.2295260597
 C   -0.0387977693    0.0766796617    0.0597861044
 C    0.1425488016   -0.5971803097   -1.1298671167
 N    0.2943449428   -1.8845874684   -0.7127550702
 N    0.2048177651   -2.0043368536    0.6132754415
 N    0.0093595074   -0.7980426037    1.0904842495
 C    0.1923455190   -0.1953640422   -2.5427688518
 C    1.3431550307   -0.5070903132   -3.4125755294
 O    0.1410627090   -1.2788534122   -3.4812267729
 H   -0.3441646236    1.5444265008    1.1775338758
 H    0.3821305146   -2.6999598557   -1.3000559970
 H   -0.4179504509    0.6691050773   -2.7987667554
 H    1.5438700147    0.1192595171   -4.2800067107
 H    2.2056612684   -1.0182069604   -2.9889852169