11

 O   -0.0500806692   -0.0834816295    0.0037026477
 C    0.0233113082    1.1289312515    0.0090082697
 N   -1.1550526718    1.9187690927    0.0286234041
 C   -1.1622915369    3.2730104135    0.0355577796
 N   -0.0955735887    4.0094093337    0.0250830677
 C    1.0941037843    3.3191998736    0.0057317347
 C    1.2066475288    1.9645833828   -0.0026206046
 H   -2.0233343264    1.3988872108    0.0375338822
 H   -2.1428434029    3.7431205684    0.0509742945
 H    1.9831199173    3.9438583178   -0.0029853214
 H    2.1680212973    1.4672737248   -0.0179949742