16

 O    0.4071545643    0.2336102373   -0.6174298310
 C    0.3966629067    1.4149353415   -0.4533638690
 O    0.8502573567    1.9905766958    0.6836461928
 C    0.8791361541    3.4217295991    0.7264534646
 C    2.2321052222    3.9159075202    0.2759052842
 N    2.4154839847    4.0956870541   -1.1564950371
 C    2.4734931008    5.2886988075   -0.2885802405
 C    1.3786305596    6.2867440038   -0.4764162392
 O    1.4608825469    7.4340407069   -0.1206020219
 H    0.0163517198    2.1516145861   -1.1851534472
 H    0.0836893225    3.8368845897    0.0991865705
 H    0.6865666473    3.6970661105    1.7663682197
 H    3.0593048955    3.5037580828    0.8513825962
 H    3.3477211609    3.8244355221   -1.4554154076
 H    3.4363650827    5.7368490774   -0.0556443688
 H    0.4755949253    5.8891792152   -0.9888297260