15

 O    0.1318958264    1.4268232317    0.2339959837
 C    0.0008687772    0.0577103841    0.0259173412
 C   -1.4087831727   -0.6282059172    0.0525172144
 C   -2.5577850818    0.1767502556   -0.5993802885
 O   -1.9890667642    0.9521518040   -1.6702742731
 C   -2.3040124741   -0.4333873160   -1.9127946109
 C   -1.1364854809   -1.2884873636   -1.3505475994
 C    0.2174943693   -0.5352590016   -1.4040413699
 O    1.0787395389   -0.4313940429   -2.2228628089
 H   -0.3474341426    1.8590782187   -0.4849899996
 H    0.6776461893   -0.4512136885    0.7241693432
 H   -1.6752089946   -1.2259331039    0.9214679701
 H   -3.4661173900    0.5584253824   -0.1488228081
 H   -2.9524217704   -0.6429205678   -2.7547133331
 H   -1.1741044200   -2.3604480749   -1.5345881109