21

 C   -0.0978715476    1.4864748702   -0.1174715794
 C    1.2700076269    0.8550746413   -0.0230025975
 C    0.0280860490   -0.0034105478   -0.0023651333
 C   -0.3884212318   -0.9604839482    1.1514220910
 C   -0.3273901165   -2.1419527738    0.1130630660
 C   -1.4729178229   -3.0818942447   -0.3046435629
 C   -1.5627798866   -2.8561337790   -1.8519911837
 C   -1.0686240865   -1.4189486371   -2.0251448884
 C   -0.3481953942   -1.0829333019   -0.9594191751
 H   -0.4703655110    2.0281056246    0.7463101530
 H   -0.4102077208    1.8982106272   -1.0715768889
 H    1.8890060429    0.8329026765   -0.9133012112
 H    1.8204902203    0.9642209414    0.9060713276
 H    0.2833979158   -1.0189783241    2.0121603661
 H   -1.4086421655   -0.7657837589    1.4962570040
 H    0.6338157236   -2.6645627837    0.1918075302
 H   -1.3145196356   -4.1305240234   -0.0356271341
 H   -2.4128335094   -2.7580881155    0.1574703550
 H   -0.9376922500   -3.5789378145   -2.3966347343
 H   -2.5827133163   -2.9874919085   -2.2299620784
 H   -1.3605399937   -0.7877879302   -2.8563942557