19

 C   -0.0026176668    1.4606856915    0.0984148562
 C   -0.0519945108   -0.0417633962    0.0072434642
 C   -1.2895663707   -0.7704563226   -0.4800489104
 C   -0.7893566247   -2.2005719436   -0.3664220020
 O   -1.6027343179   -3.2926370165   -0.6398103328
 C    0.1781102732   -2.3366274007    0.7865618695
 C    0.6722890357   -0.8951173977    1.0417920908
 C    1.1997101953   -0.8234387860   -0.3814828753
 C    0.7095495750   -2.2646803149   -0.6392156843
 H    0.9698952357    1.8012007884    0.4697970528
 H   -0.1636826380    1.9257164821   -0.8810314556
 H   -0.7701480414    1.8448024641    0.7800541935
 H   -2.1625105706   -0.5945231743    0.1590098875
 H   -1.5525432405   -0.5019838929   -1.5115847910
 H   -1.7225163110   -3.3444319441   -1.5945013267
 H    0.1656636716   -3.1711728775    1.4735881871
 H    1.0976684354   -0.5042149259    1.9568085002
 H    2.1024949518   -0.3620411164   -0.7603797884
 H    1.1805652789   -3.0357061570   -1.2338404551