14

 C   -0.1257089033    1.5250074494    0.0224148749
 C    0.1319335650    0.0512723520    0.0175729552
 O   -0.6944273629   -0.7996517119    0.8471781798
 C    0.7142359430   -0.7899682964    1.0692265257
 C    1.3952772658   -1.9571103753    0.3894925076
 O    1.0625024329   -1.8429598560   -1.0057876793
 C    0.4357683263   -0.6654930673   -1.2830601297
 O    0.1962760859   -0.2999839729   -2.3962695366
 H    0.7540750949    2.0718062514   -0.3297244177
 H   -0.9544017728    1.7587036860   -0.6518136602
 H   -0.3785114195    1.8631766337    1.0295133821
 H    1.0602727575   -0.4106796562    2.0260537574
 H    2.4844717867   -1.9122963457    0.4978350624
 H    1.0332107507   -2.9238533408    0.7502705884