22

 C    0.3325378869    1.4462312615    0.0928845797
 C    0.0556582004   -0.0396182141   -0.1523129306
 C   -1.3865315982   -0.4757556412    0.0931084130
 C   -1.6941065538   -1.9837696731   -0.1554071288
 C   -2.1804559204   -2.0851231959    1.3142323222
 N   -1.7953621392   -0.6794645313    1.5018068046
 C   -2.2570261231    0.2495019360    2.3863535324
 C   -2.9399329720   -0.3229742945    3.6197529693
 O   -2.1246245424    1.4483192624    2.2011369825
 H    1.3847019876    1.6787526715   -0.1001533028
 H   -0.2757679840    2.0700566415   -0.5708553633
 H    0.0853713079    1.7325424507    1.1163725280
 H    0.2911257235   -0.2912449295   -1.1960244932
 H    0.7139598038   -0.6590754468    0.4704712544
 H   -2.0758264528    0.2056026471   -0.4216754069
 H   -2.4545843036   -2.1877930427   -0.9095235014
 H   -0.8054523935   -2.5788977599   -0.3738748541
 H   -3.2549649871   -2.2696058739    1.4289051955
 H   -1.6366341070   -2.7910049767    1.9517136525
 H   -2.3747349289   -1.1549261820    4.0503365009
 H   -3.0466241533    0.4727738713    4.3565190472
 H   -3.9370657909   -0.6991175603    3.3634262190