19

 C   -0.0684466976    1.5042751536    0.0055125869
 C    0.0240443211    0.0076525596   -0.0468890752
 C    0.4336076967   -0.8133383948   -1.2928867557
 C   -0.4555640988   -1.8260702668   -0.5459340532
 C    0.3691478885   -2.2038320097    0.6990256248
 C    0.7565410407   -0.7405028612    1.1245937761
 C    2.1796461282   -0.4715561897    1.2195076030
 C    3.3578541307   -0.2348594313    1.2792509099
 O   -1.2545812978   -0.7051966232   -0.0528264632
 H    0.9349725572    1.9403372009    0.0111961759
 H   -0.6176480389    1.8911393516   -0.8568564344
 H   -0.5861653188    1.8235372280    0.9163070138
 H   -0.0463459219   -0.4332816286   -2.1954441621
 H    1.4892710392   -1.0397900916   -1.4575897840
 H   -1.0360882275   -2.6010863441   -1.0454099607
 H   -0.2397866458   -2.7025894798    1.4550518535
 H    1.2392897325   -2.8234445852    0.4723122421
 H    0.2656022615   -0.4695681798    2.0644087273
 H    4.3972891710   -0.0275124578    1.3414652252