22

 C    0.6686632882    1.3464779597   -0.4356881965
 C   -0.0133521351    0.1206420314    0.1265427090
 N    0.8225080627   -1.0652428002    0.3778949623
 C    0.1707185680   -0.3900566021    1.5126436472
 C    1.0653968172    0.2549534016    2.5362900260
 O    1.3244798269   -0.7037850431    3.5511742180
 C    2.1718510633   -0.2295025757    4.5480786823
 C    2.9707542211   -1.2546922444    5.2827217474
 C    3.6637672838   -0.2935623285    4.3349983062
 H    1.6739152701    1.4664354271   -0.0265424298
 H    0.7609031615    1.2652388385   -1.5241163407
 H    0.0914419695    2.2510796253   -0.2148802040
 H   -1.0027372455   -0.0602561368   -0.2938321612
 H    0.3266820706   -1.9186026365    0.1367567738
 H   -0.6896235109   -0.8843612203    1.9617684569
 H    2.0041203110    0.5867823287    2.0743116939
 H    0.5691922987    1.1390329804    2.9725067159
 H    1.7750004193    0.6185203344    5.1094317182
 H    3.1125157681   -1.1339282992    6.3507284775
 H    2.8581394413   -2.2799296933    4.9495270270
 H    4.0018057580   -0.6993976485    3.3880576112
 H    4.2882072822    0.4915515215    4.7471995996