18

 C   -0.0540196790    1.4831707780    0.0046252073
 C    0.0266348569   -0.0130981054   -0.0187174869
 C    0.9076336411   -0.8904556034   -0.9105095133
 C    0.0324871148   -2.0847090883   -0.4421032795
 C    0.3938849259   -2.2461445683    1.0567239184
 C   -0.2636120087   -0.8763641851    1.2504652706
 C   -0.6766086538   -0.2781698041    2.4729602643
 N   -1.0062574532    0.2050304258    3.4729615460
 C   -1.0776840052   -1.0334412502   -0.0351018678
 H    0.8869863652    1.9221500139    0.3539992662
 H   -0.2562968597    1.8738346249   -0.9983338569
 H   -0.8486803893    1.8307806605    0.6712591106
 H    0.7360996915   -0.6495366930   -1.9637205205
 H    1.9841996451   -0.9410882594   -0.7126253011
 H   -0.1163933252   -2.9555329587   -1.0745805120
 H   -0.1949639012   -3.0282151807    1.5417885375
 H    1.4516128037   -2.3584087878    1.3162949797
 H   -2.1451722790   -0.9589768788   -0.1840400326