23

 C    0.1812674519    1.5557221661    0.0619893191
 C    0.0428372470    0.0421859970   -0.0034140289
 C    0.6542441922   -0.5770381266   -1.2821804025
 C    1.1130602304   -2.0276620088   -1.0304279926
 C    1.3889708845   -2.7965932076   -2.3094288526
 C    0.1854831153   -2.6516177002    0.0633537399
 C    1.0398064270   -1.8450423706    1.0790151266
 C    2.2132527765   -1.9666001797    0.0750349553
 O    0.6281416445   -0.4902758985    1.1902303059
 H    1.2373201823    1.8432459174    0.0559888557
 H   -0.3128230553    2.0232243625   -0.7958236009
 H   -0.2741859008    1.9420243078    0.9780494653
 H   -1.0293750585   -0.2076905029    0.0080545477
 H   -0.0991760191   -0.5419946052   -2.0790136404
 H    1.5118326985    0.0153445589   -1.6274340352
 H    2.1503838476   -2.2936679268   -2.9175412758
 H    1.7500916192   -3.8076437945   -2.0913388336
 H    0.4844858680   -2.8873947309   -2.9226058681
 H   -0.8921577843   -2.4747874526    0.0204504721
 H    0.3687713506   -3.7241538535    0.1725510517
 H    1.1610907895   -2.2183669534    2.0977060034
 H    2.7421377761   -2.9196072545    0.1746386244
 H    2.9291129870   -1.1403665635    0.0508620834