18

 C    0.0220916805    1.5965070956   -0.0581222974
 C    0.0027611925    0.0724587179   -0.0204107619
 C   -1.4066867566   -0.5059379233    0.2259541219
 C   -2.0348710045   -0.0435431123    1.4575645483
 C   -2.5631724300    0.3444538971    2.4644529941
 C    0.7594433263   -0.6441637207   -1.1896053657
 N    1.6822130837   -1.1734522479   -0.1852267249
 C    1.1048751343   -0.5491431556    0.8938958974
 O    1.3810024914   -0.5095668244    2.0617017373
 H    1.0303099511    1.9724508964   -0.2570048161
 H   -0.6455595219    1.9775504983   -0.8392491269
 H   -0.3097513121    2.0003793306    0.9014433458
 H   -2.0450679487   -0.2387445885   -0.6275983110
 H   -1.3491360906   -1.6019188824    0.2357325779
 H   -3.0178485951    0.6771652204    3.3644190311
 H    0.1854028952   -1.4110517553   -1.7210574448
 H    1.2212108401    0.0348740300   -1.9139684589
 H    2.5289908946   -1.7163576561   -0.2674838361