14

 O   -0.0489828804   -0.0982765484    0.0041036114
 C    0.0200608215    1.1176465811    0.0091344273
 N   -1.1643264401    1.8911043423    0.0285065360
 C   -1.2299067506    3.2433656942    0.0359306602
 C   -0.0876164027    4.0025209909    0.0245399504
 C    1.1627886237    3.2939950573    0.0045907284
 C    1.2179280527    1.9369848816   -0.0027228838
 C   -0.1432848808    5.4209563641    0.0321545956
 C   -0.1671251319    6.6253262711    0.0383053847
 H   -2.0136117533    1.3423112386    0.0370479201
 H   -2.2190632719    3.6835617970    0.0511188245
 H    2.0773734423    3.8776386358   -0.0046571570
 H    2.1596260471    1.4025299025   -0.0177597837
 H   -0.1940130157    7.6868436021    0.0437979659