19

 C   -0.7565652986    1.5128150331    0.0096608828
 C   -0.2834319515    0.0734345505   -0.0930608662
 C    0.5666548456   -0.4198369785   -1.3102742485
 C    0.9404212352    0.5192026921   -2.4432533195
 O   -0.2424955174    0.7661390403   -3.1943008033
 C    1.6326967479   -0.8016517285   -0.2867198101
 C    2.0158457030    0.3336397932    0.5749261487
 N    0.7718544751   -0.3861105601    0.8964518075
 H    0.0535152450    2.2392785819   -0.1023348073
 H   -1.4885458867    1.7151759986   -0.7775073409
 H   -1.2282524868    1.6855766339    0.9823789427
 H   -1.1426370810   -0.5869158666    0.0488630076
 H    0.1035186662   -1.3047638450   -1.7547984040
 H    1.3634845794    1.4576051679   -2.0557290206
 H    1.7184349833    0.0450153627   -3.0643998057
 H   -0.0324179205    1.3943718000   -3.8913564732
 H    2.1800541730   -1.7392410259   -0.2811485791
 H    2.7953480241    0.1562383040    1.3098969839
 H    1.9800405345    1.3543584364    0.2058742553