18

 C    0.0084677290    1.5359848613    0.0659642565
 C   -0.0464236472    0.0420536699    0.0575327146
 N    1.0843800303   -0.7744419598   -0.3001182895
 C    0.5676525743   -0.9663050383    1.0683238242
 C    1.4757149407   -0.8144210420    2.2471249896
 C   -0.7473160941   -1.6700549543    1.0308598137
 O   -1.3554739884   -2.3190087696    1.8441750252
 C   -1.3198927275   -0.8166661583   -0.1381169550
 O   -2.5428718765   -0.2344019277    0.2212274475
 H    0.9505380909    1.8906766186    0.4914599459
 H   -0.0706781254    1.9260238267   -0.9550153782
 H   -0.8273276750    1.9358192474    0.6457967476
 H    0.8442887424   -1.5380635927   -0.9323015289
 H    2.1419817099    0.0412053139    2.1091791582
 H    0.8962003697   -0.6752191838    3.1641676125
 H    2.0996483943   -1.7055452994    2.3735100540
 H   -1.3807355190   -1.2654851878   -1.1399894373
 H   -2.9110375383   -0.7714563541    0.9359863495