23

 C   -0.0873687458    1.5357721919    0.0003945825
 C    0.0151218777    0.0044111626    0.0012425334
 C   -1.4039733823   -0.5743573799   -0.1065480445
 C    1.0363414500   -0.5853948644   -1.0255045977
 C    2.3867281758    0.0060324271   -0.5523711352
 C    2.2385799310   -0.0225174838    1.0048087055
 C    0.8237903860   -0.6052695513    1.1760587394
 O    0.8872808854   -2.0020369232    0.8397246580
 C    1.0413278364   -2.0607126062   -0.5927781677
 H    0.8767240017    2.0450483983    0.0387383326
 H   -0.6052319405    1.8789513973   -0.9022606161
 H   -0.6757467575    1.8776333526    0.8593118425
 H   -1.8273577530   -0.3887966303   -1.1002419367
 H   -1.4297973920   -1.6472970611    0.0871482725
 H   -2.0656898613   -0.0931231098    0.6220569371
 H    0.8066779068   -0.4304592038   -2.0817119554
 H    3.2286965553   -0.5982069278   -0.9017670081
 H    2.5427809529    1.0189288676   -0.9308093786
 H    2.9693638392   -0.6754518953    1.4867732104
 H    2.3339211697    0.9710476580    1.4520253146
 H    0.3915859864   -0.5209297360    2.1750653314
 H    0.2175974386   -2.6407944872   -1.0263761207
 H    1.9822252295   -2.5661382655   -0.8442529692