15

 O    0.1578364451    1.4450434427    0.0057199199
 C    0.0880754777    0.0345615052   -0.0462223863
 C    0.5123775584   -0.6185830142    1.3235966367
 N   -0.7083595010   -0.5516052290    2.1940082827
 C   -1.6370457375   -0.5577361817    1.3363917204
 O   -2.9347686016   -0.1337190460    1.2995018914
 C   -2.7127352044    0.2424751810   -0.1274169899
 C   -1.3595684327   -0.5177987599   -0.1244838339
 H   -0.1561714716    1.7269847118    0.8733421804
 H    0.7183530765   -0.2716629950   -0.8844671273
 H    0.8571720798   -1.6522066577    1.1920536071
 H    1.3228975824   -0.0501086469    1.7880772759
 H   -3.5051544882   -0.1609292687   -0.7579874182
 H   -2.6386654507    1.3279692187   -0.2131020182
 H   -1.4094649619   -1.4780604203   -0.6422048707