21

 C    0.3883872370    1.5061776340    0.1135099753
 C    0.0294636897    0.0173976182    0.0132574782
 C    0.5102534226   -0.7506917614    1.2518977006
 O   -1.3840363520   -0.1395161998   -0.1465188322
 C    0.6321405634   -0.5941544742   -1.2636667323
 O    2.0344154468   -0.4619330644   -1.1515540216
 C    0.1282992648   -1.9992853122   -1.6856599314
 O   -0.3135967610   -1.5032758222   -2.9649055817
 C    0.0282960645   -0.1459921474   -2.6204442433
 H    1.4703168042    1.6451419076    0.1613684692
 H    0.0022512652    2.0544357083   -0.7507102735
 H   -0.0553996515    1.9417786573    1.0161260461
 H    0.0669358680   -0.3218260069    2.1579627141
 H    0.2103331467   -1.8010580710    1.1940959965
 H    1.5970380497   -0.7015412625    1.3449345278
 H   -1.8101494574    0.2306435621    0.6329343765
 H    2.4372245209   -0.8382004117   -1.9407118842
 H    0.9198827208   -2.7550873782   -1.7784222957
 H   -0.6998102711   -2.3994410391   -1.0927342036
 H   -0.8559909393    0.4950177233   -2.5526655538
 H    0.7553564080    0.2939637503   -3.3163391610