14

 N    0.1087797960    1.3331549692    0.3928534827
 C   -0.0413450800   -0.0072777235    0.0922618055
 C   -1.2418184185   -0.6463577047    0.1485653418
 C   -1.4522481904   -2.0450055002   -0.2579909603
 O   -2.4114683921   -2.3895994733   -0.9131585413
 N   -0.5600641358   -2.9912232768    0.2766412550
 C    0.7100952147   -2.8762965386    0.2598770549
 N    1.5183441251   -1.9087153098   -0.3224525385
 C    1.1800019230   -0.6727677283   -0.3757971552
 H    0.9054840625    1.8082823614   -0.0022875411
 H   -0.7277351132    1.8957833310    0.4096082651
 H   -2.1456609253   -0.0756099590    0.3474475300
 H    1.2934370180   -3.6746654800    0.7209181711
 H    1.9204847159    0.0007478427   -0.8211846599