14

 C   -0.0194382222    1.5010031001   -0.0130371714
 C   -0.0227832185   -0.0077213103    0.0038209391
 O   -0.0418478478   -0.6764847678    1.0183076636
 C   -0.0015179617   -0.7043953119   -1.2991265356
 N    0.0210647156   -0.1396810952   -2.4755346795
 N    0.0335905891   -1.1838790845   -3.3452849103
 C    0.0192554890   -2.4405376906   -2.7378797285
 O    0.0255560400   -3.5343516339   -3.2484094273
 N   -0.0037957396   -2.0735255692   -1.3932203417
 H    0.8648570795    1.8730343005   -0.5394440303
 H   -0.8905932729    1.8759048135   -0.5591245635
 H   -0.0308155144    1.8695339938    1.0126862543
 H    0.0525600820   -1.0203723226   -4.3378388758
 H   -0.0191898580   -2.7057295719   -0.6104386330