17

 C    0.0427797388    1.5954017282   -0.0328901882
 C    0.0170573611    0.0694541547    0.0651291596
 N    0.7428339002   -0.5618836082   -1.0784128867
 C    1.5119860819   -1.7684560972   -0.6707848797
 C    1.6181299320   -1.5462530073    0.8013557859
 N    2.2644242601   -2.0426819247    1.8480520289
 N    1.7797956591   -1.2910562508    2.8451671343
 N    0.8805653846   -0.3519899510    2.5256472381
 C    0.7758675838   -0.5164532052    1.2131377092
 H    1.0746263045    1.9538493510   -0.0684568092
 H   -0.4685768023    1.9293208241   -0.9411065160
 H   -0.4607721101    2.0437466688    0.8294609074
 H   -1.0353472229   -0.2606537798    0.1120578560
 H    0.1196222099   -0.7580494012   -1.8502383269
 H    0.9938726695   -2.7150721128   -0.8946683507
 H    2.4807894632   -1.7988116295   -1.1832856080
 H    2.0930841368   -1.4153090591    3.7939893862