17

 O    0.1287643947    1.3963047339    1.1061254104
 C    0.3171393442    0.1799146300    0.4432314799
 C   -0.5088838356   -0.9579804031    0.9936302789
 O   -1.2708659060   -0.7035202794    2.1251647122
 C   -0.8842151684   -0.3232792524   -0.3430077639
 N   -1.9786415666    0.6103598880   -0.3624035087
 C   -2.7403985304    0.7561378300   -1.5998312249
 C   -3.3385280908    0.0766769328   -0.4180567247
 H   -0.6940163381    1.7581779748    0.7277638506
 H    1.3295232789    0.0305630871    0.0807352570
 H   -0.1113522317   -1.9689146957    0.9614384728
 H   -1.0060523226    0.1833115283    2.4158289675
 H   -0.7128205271   -0.9126670292   -1.2432721192
 H   -3.0303074352    1.7703188583   -1.8588782000
 H   -2.4495634828    0.1359168509   -2.4451125802
 H   -3.4472720919   -1.0036051250   -0.4590106203
 H   -4.0684984406    0.5886427007    0.2013126126