21

 C   -0.1433053865    1.5116363321    0.0371514747
 C   -0.0129103824    0.0144739915   -0.0317624685
 C    0.0035752140   -0.6705689721   -1.1781614996
 C    0.1099668113   -2.1761340494   -1.2445912710
 C    0.9434531147   -2.7435112777   -0.0820103601
 C    0.5459060549   -2.1318880288    1.2592762864
 C    1.4017966260   -1.0471346432    1.8923406028
 C    0.0609278242   -0.7142305113    1.2742759406
 O   -1.0023959879   -0.4548738143    2.1633932555
 H    0.6996234663    1.9607185227    0.5791524730
 H   -0.1821107627    1.9572533825   -0.9601252770
 H   -1.0570321320    1.8014826977    0.5708033628
 H   -0.0738200312   -0.1320922985   -2.1207313041
 H   -0.8994182926   -2.6133141585   -1.2307407063
 H    0.5517700007   -2.4791550726   -2.2004454511
 H    0.8406151694   -3.8328180322   -0.0409100592
 H    2.0023829115   -2.5409235593   -0.2807869701
 H    0.0348526945   -2.7842749016    1.9593360399
 H    1.4626021981   -1.0227514375    2.9755935221
 H    2.3037074461   -0.7438143477    1.3693772936
 H   -0.8311509762    0.3917968481    2.5894367056