17

 C   -0.0401634058    1.3636306395   -0.0581847111
 N    0.0071583353   -0.0638707399    0.1496267839
 C   -1.1225175615   -0.9487797496    0.1502946545
 C   -1.1658664779   -2.1127706905   -0.8617072836
 C    0.2416870030   -2.3746990896   -1.3730253250
 N    0.7915430171   -2.2165037319    0.0510474356
 C   -0.6241574421   -2.2852128176    0.5453919783
 C    1.1714492761   -0.8007631105    0.1168495068
 O    2.2966461482   -0.3760352727    0.0495854648
 H    0.9891750207    1.7268299804   -0.0394926768
 H   -0.4900079856    1.6166726992   -1.0269168571
 H   -0.6111038295    1.8649038450    0.7320338907
 H   -2.0617245407   -0.5614052537    0.5248652612
 H   -2.0994135684   -2.4625014458   -1.2854167681
 H    0.3906638354   -3.4071516840   -1.6946732758
 H    0.6797922809   -1.6936497425   -2.1103323165
 H   -0.9056530652   -2.8981726858    1.3919904381