21

 O   -0.0695912548    1.4215246032    0.0515042064
 C    0.0017251904    0.0035675226    0.0039439728
 C    0.7676004793   -0.5529967164    1.2147286373
 O    0.7726342262   -1.9678119695    1.2313303411
 C   -0.5438593863   -2.4965079675    1.3161015970
 C   -1.4023595416   -2.0519824870    0.1485885053
 C   -1.4118829322   -2.9056784199   -1.0962104400
 C   -2.6232792649   -2.8616792783   -0.1944146761
 C   -1.4274355412   -0.5389241638    0.0121430668
 H    0.8215776658    1.7711351173   -0.0498072740
 H    0.5083910776   -0.3363224285   -0.9128043224
 H    1.8171473489   -0.2387108538    1.1907460820
 H    0.3096788668   -0.1459077802    2.1329922991
 H   -0.4366304560   -3.5850077235    1.3393908783
 H   -1.0108439695   -2.1784172659    2.2652696143
 H   -1.4750585283   -2.4071855914   -2.0579763412
 H   -0.8107160936   -3.8088095109   -1.1040719322
 H   -2.8442354264   -3.7377081836    0.4074448768
 H   -3.5038141969   -2.3309178828   -0.5414460014
 H   -1.9554290830   -0.0881441000    0.8639103393
 H   -1.9554838102   -0.2272053804   -0.8949254393