21

 C    0.2149868500    1.4284171761    0.2996937532
 C   -0.1416803005   -0.0262865726   -0.0317172481
 C   -1.6524526535   -0.2127470389   -0.2261717455
 C    0.6363350441   -0.5215881469   -1.2592185947
 C    2.0622041932   -1.0419894584   -1.0483571093
 C    0.9547916166   -2.0033819765   -1.3709161079
 O    0.4356925578   -2.8336458228   -0.3755234365
 C    0.3752260985    0.1676916379   -2.4964074113
 C    0.1577470662    0.7456077845   -3.5296534408
 H    1.2895113217    1.5469947953    0.4735135854
 H   -0.0668615790    2.0969010460   -0.5203591160
 H   -0.3124946860    1.7578031256    1.2006285270
 H    0.1682162858   -0.6620123678    0.8036061409
 H   -2.0106834539    0.3626349760   -1.0862069785
 H   -1.8948101659   -1.2659465252   -0.3929134738
 H   -2.1994214711    0.1277919111    0.6590924816
 H    2.8069670548   -0.8270609290   -1.8056263556
 H    2.4218292883   -1.0303956816   -0.0243267089
 H    0.9303317858   -2.4234245843   -2.3753072156
 H    1.1054262533   -3.4890961777   -0.1540626476
 H   -0.0369756764    1.2542758292   -4.4409590179