20

 C    0.0039454872    1.4571919032    0.0365289451
 C    0.0105065082    0.0007486567    0.0172521067
 C    0.0123674574   -1.2037934067   -0.0038999783
 C    0.0188662710   -2.6709432704   -0.0234813439
 C   -1.4262292840   -3.2061444737    0.0957325429
 C    0.6626530552   -3.1778087546   -1.3340459884
 C    0.8532039878   -3.1505553986    1.1859667263
 O    0.8733423261   -4.5703193728    1.1872510604
 H    0.5785877981    1.8474227743    0.8840365488
 H    0.4436701945    1.8706699928   -0.8780180645
 H   -1.0152259640    1.8508841236    0.1202796207
 H   -2.0247893364   -2.8858828315   -0.7613530166
 H   -1.4166097593   -4.2978284841    0.1353240371
 H   -1.9058247899   -2.8292853611    1.0040435280
 H    1.6758166781   -2.7807007255   -1.4474843241
 H    0.7162413895   -4.2688963525   -1.3245503359
 H    0.0743961440   -2.8574068598   -2.1981835631
 H    1.8692288657   -2.7362806730    1.1047869598
 H    0.4023243611   -2.7561794504    2.1088401804
 H    1.3930395698   -4.8630990760    1.9407174086