21

 C   -0.2043179443    1.5530289309   -0.1452434036
 C    0.0063653377    0.0527637360    0.0098548207
 C    1.1827500452   -0.6093885639   -0.7958742264
 C    2.1311053719   -0.1561666415    0.3573685877
 C    0.8689696522   -0.4803631281    1.1944705516
 C    0.6836905268   -0.1584665369    2.6526005500
 O    1.6456543981   -0.8265602587    3.4493963132
 O    0.7508231551   -1.9176270983    1.0246508234
 C    0.9758435646   -2.0744684786   -0.3975024975
 H    0.7197041954    2.1304925499   -0.0587025523
 H   -0.6394931770    1.7755325056   -1.1256238755
 H   -0.9008268169    1.9279848073    0.6124647489
 H   -0.9541198268   -0.4672255472   -0.0783569217
 H    1.3739061364   -0.3877985375   -1.8457082500
 H    3.0215994849   -0.7552193247    0.5584698811
 H    2.3845228970    0.9024611732    0.3279413151
 H    0.8152149136    0.9151293041    2.8216380474
 H   -0.3441879497   -0.4231633833    2.9510213366
 H    1.6364928536   -1.7444615037    3.1522952445
 H    0.0997924966   -2.5386634507   -0.8650899745
 H    1.8535558857   -2.7076137836   -0.5729954489