19

 C   -0.0918249120    1.5443121676    0.0192110222
 C    0.0186585918    0.0134462073    0.0153926765
 C    0.9323213849   -0.4442113187    1.0969782182
 N    1.5924219372   -0.8380010051    1.9611428779
 N   -1.2896527688   -0.6070712372    0.1002618497
 C   -2.0919724926   -0.5202670073    1.3462681110
 C   -2.6451497541   -1.9356751333    1.0273106599
 O   -3.8989499229   -1.9657337942    0.3931680882
 C   -1.4169722868   -2.0838104199    0.0899271645
 H    0.8927392806    2.0043841222   -0.0930468233
 H   -0.7337103217    1.8567695860   -0.8074371575
 H   -0.5286795727    1.8983185326    0.9568945802
 H    0.4689690187   -0.3069197606   -0.9325788315
 H   -1.4824557853   -0.5068571477    2.2618252578
 H   -2.8199898356    0.2965050308    1.3752195706
 H   -2.7057544623   -2.6327536669    1.8627469710
 H   -3.8674635372   -1.3537841520   -0.3511820530
 H   -1.5958631417   -2.5245314897   -0.8965061722
 H   -0.5790567294   -2.6008953539    0.5802876097