14

 N    0.3181936734    1.3732077373    0.2423139419
 C    0.0966188742    0.0067854764    0.0752602750
 C   -1.0341254614   -0.7387630095    0.2344565637
 O   -0.7625886086   -2.0708355867    0.0483399908
 C    0.5512309139   -2.1831247169   -0.2411588072
 C    1.1228480621   -0.9486500772   -0.2337221485
 O    2.4232902584   -0.5948917965   -0.5146220517
 C    3.4022707673   -1.0792749802    0.3065171185
 O    4.5547243318   -0.8627882066    0.1077804118
 H    1.1082529918    1.7037659629   -0.2963917320
 H   -0.4943583354    1.9461935242    0.0613466217
 H   -2.0541718009   -0.4954063916    0.4761230413
 H    0.9291627078   -3.1707332523   -0.4441741895
 H    2.9819020856   -1.6759972432    1.1352995343