17

 C    0.0167683019    1.6706748329    0.1588435418
 C    0.0710826034    0.1496828502   -0.0249150595
 N   -1.2734229380   -0.3882930589   -0.0213541312
 C   -1.7908901807   -1.0364993993   -0.9836859037
 N   -3.0934088217   -1.5362110425   -0.9440152458
 C   -4.0409570161   -1.4563819132    0.0589215586
 O   -3.9241099569   -0.9168485588    1.1268827240
 C   -1.1474805603   -1.3838659891   -2.3076495527
 O   -1.7306304880   -2.0132530196   -3.1599502807
 H    1.0270698064    2.0757203919    0.2692264304
 H   -0.4542265879    2.1499295368   -0.7049465012
 H   -0.5671295206    1.9231861006    1.0471895879
 H    0.6795632327   -0.0945686005   -0.9063236988
 H    0.5816800298   -0.2907760877    0.8409459376
 H   -3.3525973082   -2.0307002079   -1.7887782521
 H   -4.9665917002   -1.9774758913   -0.2612709684
 H   -0.1171318857   -1.0291775836   -2.4641943662