18

 C    0.1210912756    1.3231460844    0.2750155287
 C    1.5206901984    1.8946304904   -0.0802024822
 C    2.2465515973    0.6006759315   -0.2364645301
 C    3.2899919725   -0.0005945650    0.3333227589
 C    3.1009317707   -1.4874973449    0.2769445874
 N    1.9231100529   -1.8682992633    1.1112731210
 C    1.7688986261   -1.7318030138   -0.3505866647
 C    1.2613335811   -0.3820984586   -0.8424658092
 O   -0.0216192086    0.0815312629   -0.4306617874
 H    0.0543183663    1.1447697929    1.3563715119
 H   -0.7003539774    1.9819594249   -0.0241034192
 H    1.4726736227    2.4570408136   -1.0208498140
 H    1.9178469680    2.5478156763    0.6992527648
 H    4.0693623920    0.4773873935    0.9152927266
 H    3.9277936179   -2.1833935498    0.1860497016
 H    1.9787651502   -2.8636715904    1.3234604997
 H    1.5772552010   -2.6214360611   -0.9397104112
 H    1.2871383834   -0.3849195033   -1.9445254424