17

 O   -0.0484425731   -0.0114529782    0.5019114128
 C    0.0096180848    1.1994131764    0.4234768718
 N    1.0987864680    1.8909785247    0.0258367038
 C    2.4349828821    1.4228941288   -0.3536469381
 C    2.8288746154    2.9014351976   -0.6135996183
 C    2.4677514747    3.4352030704   -2.0285878435
 C    1.0800756161    3.9218271891   -1.5045359291
 C    1.3992384035    3.3170741939   -0.1116293227
 H   -0.8354298459    1.8730447272    0.6790414001
 H    2.9635217828    0.9387648917    0.4750345064
 H    2.4524092686    0.7545301324   -1.2211422998
 H    3.7481555686    3.2576467188   -0.1532090551
 H    3.1144330646    4.2435222651   -2.3759490258
 H    2.4372024416    2.6668709457   -2.8055242590
 H    0.9950760538    5.0113950637   -1.4748294049
 H    0.1938250830    3.5156749489   -1.9967228767
 H    1.1964537814    3.9187274039    0.7776437881