16

 C   -0.4342847477    1.4279806678    0.2298035036
 C    0.0393536575    0.0070879685    0.0840171511
 O    1.3912361005   -0.1968343147   -0.3155724736
 C    1.0144028073   -0.6220885259    1.0077564026
 C    1.5820962151    0.0814263974    2.1247383551
 C    2.0673446192    0.6461104497    3.0731785385
 C    2.6079529602    1.3423591003    4.2397362368
 O    1.7834307787    2.4021850305    4.7032326787
 H    0.2868701904    2.0241641771    0.7924642061
 H   -0.5717466253    1.8820522633   -0.7568255721
 H   -1.3977343048    1.4554119742    0.7499953672
 H   -0.6655954762   -0.6751484145   -0.3963122156
 H    0.9709890383   -1.7054621404    1.1203830098
 H    2.8085097364    0.6091213030    5.0372538524
 H    3.5695426629    1.8022260267    3.9860532096
 H    0.9027460375    2.0408915069    4.8483629301