19

 O   -0.0346619950    1.4550678973    0.2558729528
 C    0.0659917614    0.0477064893    0.0821425105
 C    0.7234279430   -0.3012350523   -1.1828705108
 C    1.3226693161   -0.5847126809   -2.1873756285
 C    0.7713952196   -0.6654844564    1.2644104115
 O    0.7393203276   -2.0581811441    1.0511056136
 C    2.1394702003   -0.0374639001    1.6761398523
 C    1.4392417553    0.6318000816    2.8907252500
 C    0.1980834822   -0.2698230400    2.6465070911
 H    0.8195276809    1.8418845771    0.0352450288
 H   -0.9665713595   -0.3208254404    0.0639085973
 H    1.8227870565   -0.8278523673   -3.0928389683
 H    1.1328913348   -2.2341017519    0.1866188567
 H    2.8340604630   -0.8271482099    1.9717437379
 H    2.6407568815    0.6108817504    0.9502961964
 H    1.9374584276    0.5266807767    3.8562949108
 H    1.2196683813    1.6869276656    2.7199873924
 H   -0.7796851601    0.2163493595    2.6481018028
 H    0.1699003035   -1.1454350942    3.2985705927