21

 C   -0.0003028573    1.4963113216   -0.0325618632
 C   -0.0147775441   -0.0096999281    0.0387473238
 C   -0.8757409190   -0.7059081681    1.0519881024
 C    0.6413045160   -0.7212731326    1.2054537790
 C    1.3955957740   -2.0246608662    0.9680633100
 O    0.6199072753   -3.0947945820    1.5104879987
 C    1.6759394257   -2.2376580974   -0.5290159419
 C    0.4508227870   -1.8994897043   -1.3700638527
 O    0.1180738169   -0.5243202368   -1.2636709740
 H    0.9399450983    1.8522824281   -0.4656969669
 H   -0.8207280759    1.8544396638   -0.6629613099
 H   -0.1142356282    1.9335283241    0.9629450872
 H   -1.4506156481   -0.0992121225    1.7432033914
 H   -1.3412037812   -1.6489827260    0.7945467204
 H    1.0517625139   -0.0910509470    1.9877455099
 H    2.3570218474   -1.9640339924    1.4983556020
 H    1.1201522051   -3.9086376482    1.3873427772
 H    2.5072457667   -1.5931923021   -0.8392884722
 H    1.9821436392   -3.2761296956   -0.7070376594
 H    0.6401265580   -2.0701622058   -2.4333831250
 H   -0.3959368395   -2.5379772224   -1.0759396367