18

 C   -0.0473714464    1.6460038749   -0.1294133543
 C    0.0631972949    0.1424086956    0.0904413406
 C    1.1321812677   -0.6763110138   -0.6600295736
 O    1.4276350339   -0.8445682497   -1.8006535477
 N    1.6611132039   -1.3299492428    0.5291543930
 C    2.1474652867   -0.2022499766    1.3987907695
 C    0.7022640750   -0.4492237357    1.3570357850
 C   -0.0449844643   -1.1160912368    2.4853677541
 O    0.7721211542   -2.0347032252    3.1789108507
 H    0.8939908842    2.1600748854    0.0836511092
 H   -0.3109356927    1.8510845758   -1.1711314049
 H   -0.8231173620    2.0808863800    0.5082972586
 H   -0.9066863302   -0.3367581370   -0.0950979689
 H    2.6907866814   -0.5706980681    2.2613122580
 H    2.5835907514    0.6662910073    0.9138156824
 H   -0.3765051937   -0.3716548576    3.2185666560
 H   -0.9484540565   -1.6004169907    2.0789483320
 H    1.1407349123   -2.6287081950    2.5116705304