17

 C   -0.0628460202    1.5425267344   -0.0119418029
 C   -0.0024459845    0.0350236916    0.0373639201
 C    0.3355152788   -0.7525016232   -1.2794343604
 C   -0.8382923087   -1.6457022749   -0.9280757664
 C   -0.9344207447   -1.9889160873    0.5382201994
 C    0.2626596018   -1.8128859385    1.4034097189
 C    0.7808956319   -0.6090668214    1.1603782855
 N   -1.3850204928   -0.6596995249    0.0687200195
 H    0.9369991683    1.9661246118   -0.1586363189
 H   -0.7016374761    1.8781566164   -0.8340301216
 H   -0.4723118245    1.9424489200    0.9212242951
 H    0.0975409565   -0.1507342526   -2.1604692639
 H    1.3344261823   -1.1859002519   -1.3861010416
 H   -1.4819503287   -2.1403426630   -1.6501820378
 H   -1.7295985153   -2.6715621198    0.8231608163
 H    0.6364982178   -2.5693836791    2.0809034120
 H    1.6933867981   -0.1910565675    1.5677763868