21

 C    0.3382708113    1.4237377767    0.0002635757
 C    0.0293333629   -0.0360180189    0.1435620033
 C   -1.3482231114   -0.6957479449   -0.0430023178
 C   -0.9662144955   -1.7473039044    1.0499542076
 C    0.4043316942   -1.0647103054    1.1897987624
 N    1.0875587486   -1.0215885422   -0.1020697816
 C    1.2239757114   -0.9767464645    2.4276198270
 C    2.3755186537   -1.8988189602    2.6201004566
 N    2.6013115763   -0.4697321416    2.3537261122
 H    1.3331559866    1.6507474493    0.3909620452
 H    0.3103226404    1.7282742383   -1.0530025945
 H   -0.3927425474    2.0320696099    0.5432944720
 H   -2.1786209426   -0.0558671172    0.2662714856
 H   -1.5585981563   -1.0743653669   -1.0495425469
 H   -1.5851672651   -1.6566013275    1.9463350562
 H   -0.9411808142   -2.8012866033    0.7514815639
 H    0.8063132888   -1.7723457661   -0.7311167206
 H    0.6768405376   -0.6474601014    3.3093227926
 H    2.6438726118   -2.2325174990    3.6185461158
 H    2.5857934781   -2.6087790791    1.8243761902
 H    2.8298086707   -0.3687743117    1.3648326650