17

 C   -0.2664336786    1.4503025950    0.0856097447
 C   -0.0952589091   -0.0723017894   -0.0797210536
 O    0.5872731523   -0.3755092015   -1.2679922922
 C    0.6494177634   -0.6635217010    1.1051391507
 O    1.7526765346   -1.1505198549    0.9797340166
 C   -0.0213896282   -0.6581609145    2.4866365337
 O   -1.1695157448   -0.2970950963    2.6286814327
 C    0.7982094063   -1.1443875941    3.6613705698
 O    0.0676736947   -1.0974454995    4.8492588544
 H    0.7082400492    1.9362863380    0.1919601258
 H   -0.7438695214    1.8394033796   -0.8164385831
 H   -0.8908929642    1.6873905070    0.9493788655
 H   -1.0953822973   -0.5307587364   -0.0988992244
 H    1.4374636464   -0.7598810085   -1.0076302262
 H    1.1472277440   -2.1643039267    3.4347623628
 H    1.7098502186   -0.5276989480    3.7194607172
 H   -0.8115908461   -0.7649409387    4.6145976656