17

 O   -0.2385406907    0.1637123154    1.5777858495
 C   -0.1119257300    1.1816749116    0.9327313701
 C    1.1002127693    2.0462443965    1.1511386208
 C    1.8684050391    2.5811255313    0.0065648630
 O    1.0248459736    3.4241730535    0.7736588346
 C   -1.1227107656    1.6066793497   -0.1097344233
 C   -1.3494626740    0.5998580864   -1.2755710055
 O   -2.7461602397    0.4761109034   -0.9718550380
 C   -2.6018703579    1.2815978459    0.2141370112
 H    1.6268415225    1.8370036162    2.0801510132
 H    2.9382106178    2.7392606921    0.1290573754
 H    1.5360345807    2.3807602800   -1.0109076139
 H   -0.9505854473    2.6316367866   -0.4341409077
 H   -1.1754646267    0.9962063742   -2.2826168289
 H   -0.8154286689   -0.3507230608   -1.1538440774
 H   -2.7266843510    0.6903755688    1.1279515973
 H   -3.2862640813    2.1365348892    0.2181838397