14

 C   -0.0258508342    1.5062453491   -0.0795776998
 C    1.5395002154    1.3683169643   -0.0139159729
 C    1.1677016218    0.1552227987    0.9155072045
 N   -0.0815204450   -0.0350497130    0.0250682423
 C    0.6242141005   -0.3160935508   -1.2030070538
 N    0.5864175237   -1.1001898960   -2.2222817875
 O    1.6856956967   -0.6898734991   -2.9836525164
 N    2.3848647749    0.3768588186   -2.3739839951
 C    1.7219956826    0.5885685743   -1.2914652815
 H   -0.4623299984    1.9444540209    0.8197467340
 H   -0.4828185354    1.9179166348   -0.9807937367
 H    2.2135940507    2.1721640258    0.2689241438
 H    1.8358086403   -0.7066144697    0.9522843115
 H    0.8540044963    0.4544513124    1.9171966775