21

 C   -0.0213019228    1.5136104000    0.0738845964
 C    0.0217765461    0.0044542170    0.0230197865
 C    0.9329517908   -0.7754474406   -0.9803233893
 C    0.7160635643   -1.9449526191    0.0249057605
 C    0.7115730854   -0.8525534445    1.1342299816
 C   -0.7757964228   -2.1895139888   -0.1376438805
 C   -1.3902600516   -3.3609771549   -0.7599912479
 O   -1.4138821373   -3.1790086742    0.6649397886
 C   -1.3199799789   -0.7491835288   -0.1513972453
 H    0.9821337073    1.9362796657    0.1922738951
 H   -0.4530042322    1.9291399680   -0.8442051638
 H   -0.6330858505    1.8637205994    0.9133956564
 H    0.5803452888   -0.9022990794   -2.0089392140
 H    1.9633432229   -0.4107496085   -0.9774293968
 H    1.3621019409   -2.8212595279    0.0628098479
 H    1.7160289386   -0.4916503753    1.3695399420
 H    0.1551049770   -1.0577413877    2.0532004032
 H   -2.3560900483   -3.2700327408   -1.2566095125
 H   -0.7666912072   -4.1820337895   -1.1137827870
 H   -2.0130902647   -0.5830050776    0.6789955949
 H   -1.8282429858   -0.4882357324   -1.0855188661