21

 C    0.0705903251    1.5273544450   -0.0634744000
 C   -0.0987932542    0.0533772995    0.1091236761
 C   -1.3909480374   -0.7801684357    0.0588532255
 C   -0.7213341719   -1.8099232485    1.0487288388
 C   -1.3755749548   -1.8201722499    2.4283428672
 C   -0.5310698636   -3.2143523638    0.4952027494
 O   -1.8197738659   -3.7935656182    0.3188912449
 C    0.5457455899   -0.9260677734    1.0023386131
 O    0.9541874901   -0.8066706769   -0.3673806611
 H    1.0924590720    1.8266723523    0.1846163598
 H   -0.1288100646    1.8223145761   -1.1001628004
 H   -0.6243557773    2.0763935189    0.5801136883
 H   -2.2543153946   -0.2785763538    0.5031482852
 H   -1.6605250295   -1.1602797638   -0.9289806983
 H   -2.3558169957   -2.3009682139    2.3793628541
 H   -0.7619620914   -2.3761376289    3.1473793930
 H   -1.5053769369   -0.8037280355    2.8150923615
 H    0.0136667065   -3.1513835320   -0.4555280273
 H    0.0770915176   -3.8091151445    1.1980062060
 H   -1.7081388150   -4.6479975061   -0.1071211813
 H    1.3129828017   -0.8070310672    1.7617918353