21

 C   -0.1468180974    1.5579140095   -0.0684603767
 C   -0.0480310142    0.0333749755   -0.0100653471
 C   -1.3781967128   -0.6207417946   -0.3716708189
 C    1.2068392113   -0.5189748534   -0.7352735829
 O    1.8619547599   -0.8124290097    0.5142565559
 C    0.6550107873   -0.5509680915    1.2564955131
 C    0.8933603031    0.3222391244    2.4909521493
 C    1.6298911763   -0.3793016023    3.5352585311
 C    2.2289238439   -0.9751773221    4.3895828939
 H    0.8115267692    2.0384409080    0.1491086639
 H   -0.4544605704    1.8761057152   -1.0707466345
 H   -0.8890947355    1.9418643698    0.6399304915
 H   -1.6998788902   -0.3268372955   -1.3772054590
 H   -1.3067002701   -1.7127360083   -0.3474922506
 H   -2.1678681585   -0.3202931550    0.3267322989
 H    1.0269740762   -1.4273420386   -1.3267847396
 H    1.7795926029    0.1939916107   -1.3405122322
 H    0.1892157584   -1.4934824223    1.5801424714
 H    1.4365379153    1.2271372311    2.1986006742
 H   -0.0814791765    0.6452339243    2.8812976035
 H    2.7669964619   -1.4954125451    5.1424501346