21

 C    0.3805837480    1.3701620682    0.3311057268
 C   -0.2747592438    0.1008046482   -0.2235336010
 C    0.5026304730   -0.5021338715   -1.3763956505
 C    1.7017594992   -1.3968849301   -1.1103770810
 C    0.4250294144   -1.9649192365   -1.6869645637
 O   -0.4022596140   -2.7428759688   -0.8762898647
 C    0.0394143352   -4.0891062600   -0.7837551145
 C   -0.8545693357   -4.8445427390    0.0831967591
 C   -1.5747552718   -5.4901552730    0.7947565229
 H    1.3891006960    1.1626364421    0.7041617051
 H    0.4671218965    2.1434299855   -0.4405338326
 H   -0.2045584861    1.7882036729    1.1561822124
 H   -0.3805425838   -0.6476885108    0.5674772740
 H   -1.2939741805    0.3299069414   -0.5599641052
 H    0.5852293606    0.1447531769   -2.2471365894
 H    2.5809201983   -1.3206584749   -1.7409157975
 H    1.9067816718   -1.6321772696   -0.0704491651
 H    0.4314670144   -2.2724880359   -2.7342605768
 H    0.0652690051   -4.5518370966   -1.7844202074
 H    1.0674673544   -4.1278422779   -0.3903889842
 H   -2.2162470713   -6.0559805003    1.4241587032