16

 O   -0.0643309715    1.4403035686    0.0308744605
 C   -0.0019614090    0.0514015964    0.0473542261
 C   -0.3729891552   -0.7584391083   -1.1788975581
 C   -1.2603531616   -0.8010004173    0.0446043524
 C   -1.0605444705   -1.9386752582    1.0387014144
 C    0.3726425759   -1.7339102539    1.5197019465
 C    0.9244902749   -0.6267198772    0.9968634490
 C    1.0141441621   -2.6429407075    2.4016630299
 N    1.5074407354   -3.4017134181    3.1256368632
 H    0.5577489664    1.7663920762   -0.6281830014
 H   -0.7608782265   -0.1907227742   -2.0187416877
 H    0.2289497510   -1.6227788528   -1.4410222489
 H   -2.2262755466   -0.3169154985   -0.0228031898
 H   -1.7630231674   -1.8852069647    1.8783636564
 H   -1.1910400950   -2.9249985816    0.5790106485
 H    1.9211015678   -0.2611695889    1.2132557789