22

 C    0.0006669155    1.3097809751    0.4243097998
 C   -0.1113579927   -0.1599657990    0.0093360562
 C   -1.5409126848   -0.6667061574    0.1019901052
 O   -1.5477554897   -2.0506762670   -0.3042656242
 C   -2.7386706556   -2.6730692047   -0.2676611139
 O   -3.7656462071   -2.1526549004    0.0938727938
 C   -2.6314294766   -4.1091528034   -0.7840732247
 N   -3.7853632018   -4.9370455975   -0.5068018492
 C   -3.9051686688   -5.3169540512    0.8999919203
 H    1.0344958698    1.6582315134    0.3505315209
 H   -0.6138324434    1.9531532176   -0.2147282021
 H   -0.3278623312    1.4587281575    1.4585595184
 H    0.2464300181   -0.2918017527   -1.0182379481
 H    0.5275892093   -0.7831264830    0.6454981491
 H   -1.9343645951   -0.5935765409    1.1215179810
 H   -2.2164745520   -0.1014609417   -0.5493887546
 H   -2.4693330204   -4.0424747361   -1.8685420372
 H   -1.7279016444   -4.5697253332   -0.3708264561
 H   -4.6169203988   -4.4200363126   -0.7758572046
 H   -4.8170978170   -5.9053197286    1.0355723449
 H   -3.0566886699   -5.9539010230    1.1752661074
 H   -3.9385747235   -4.4660991812    1.5985232974