16

 C    0.0704847108    1.4899907346   -0.2658577033
 C   -0.0474341272    0.0363829236    0.2013933409
 C   -1.4597905654   -0.5289264185    0.0799486865
 C   -1.9211062194   -1.0927452495   -1.2570448475
 C   -1.6495079643   -2.0258416349   -0.1147872046
 C   -2.4555052011    0.1483149978    0.8744598084
 N   -3.2405459576    0.7025923705    1.5193885609
 H    1.0980124303    1.8486422203   -0.1567607054
 H   -0.2137109386    1.5916975397   -1.3182562641
 H   -0.5794496750    2.1455419066    0.3216546411
 H    0.6189833177   -0.6031897064   -0.3889407972
 H    0.2813727741   -0.0493179802    1.2437170697
 H   -2.9504420197   -0.9260856781   -1.5503525305
 H   -1.2041152431   -1.0441081737   -2.0692903657
 H   -0.7453495831   -2.6240481471   -0.1350867836
 H   -2.4936452882   -2.4956658146    0.3753623243