11

 C    0.0077793097    1.3950029825   -0.0459789210
 C    1.4693665447    1.8749690243    0.1182560815
 O    2.2208235984    0.6703219304    0.2542775287
 C    1.3334756339   -0.3973860484    0.0033033335
 O    0.0530047171    0.0395523163    0.3758065371
 H   -0.7061156037    1.9298117903    0.5837023242
 H   -0.3172207006    1.4672020123   -1.0946359937
 H    1.8106462782    2.4510281259   -0.7507605616
 H    1.6158424516    2.4794551647    1.0196228380
 H    1.3561304674   -0.6733921441   -1.0682493528
 H    1.6130111632   -1.2564323741    0.6199154961