24

 C    0.1999060130    1.5564937684   -0.1044935013
 C    0.3314010483    0.0312384789   -0.0801810348
 C    0.6038151726   -0.5249537859    1.3211258242
 C    0.7413899864   -2.0498180538    1.3550367716
 C    0.9413927747   -2.6146139930    2.7674150832
 O   -0.1288963994   -2.2525457429    3.6423238175
 C    1.1524898064   -4.1145128994    2.7492458194
 C    2.5192219864   -4.6829237560    2.8655097588
 N    1.5611331840   -4.8116871843    3.9747294733
 H    1.1171490738    2.0383734423    0.2520469825
 H    0.0017689602    1.9256795872   -1.1156610557
 H   -0.6197397001    1.8926522488    0.5402160285
 H   -0.5869107839   -0.4219580459   -0.4773283936
 H    1.1375280457   -0.2781482366   -0.7590857324
 H    1.5219668981   -0.0707379126    1.7197699987
 H   -0.2007473441   -0.2283718665    2.0038364328
 H   -0.1565017859   -2.5129274260    0.9182893468
 H    1.5839227597   -2.3690949470    0.7273288259
 H    1.8245328486   -2.1437659825    3.2210933617
 H   -0.9166113636   -2.7283647171    3.3550848034
 H    0.4146343057   -4.6661115233    2.1646038908
 H    2.7704717137   -5.6133348263    2.3642918155
 H    3.3489478511   -3.9869328114    2.9659565331
 H    1.7616115787   -4.1248556950    4.6987666804