18

 N   -0.1682784008    1.4213997741    0.0320246828
 C   -0.0178500191    0.1702004133    0.1464917054
 C   -1.1342711345   -0.8080470208   -0.1293115822
 C   -1.2450066929   -1.8105964453    1.0259817955
 C   -1.5995665916   -3.2756420987    0.6898304334
 O   -0.2594275025   -3.7216278243    1.0072348373
 C    0.1303482045   -2.3955834378    1.4185149960
 C    1.2637757415   -1.8096931060    0.5766525497
 O    1.1676656577   -0.3787544578    0.5587912004
 H    0.7046882434    1.9018969098    0.2620137043
 H   -2.0515433771   -0.2415753534   -0.2893606546
 H   -0.9127294326   -1.3436631273   -1.0616213867
 H   -1.8082704660   -1.3811534917    1.8556667389
 H   -2.3453661153   -3.7402926224    1.3454510647
 H   -1.8645336457   -3.4800935785   -0.3548014270
 H    0.3726255070   -2.3579895190    2.4869707120
 H    2.2524069101   -2.0314034078    0.9826600019
 H    1.2097352839   -2.2190843962   -0.4392900218