20

 C   -0.1277208655    1.5296082713   -0.3360966557
 C   -0.0740857318    0.0800805410    0.1508467056
 N   -1.3701621597   -0.5736867450    0.1193419597
 C   -1.8895532473   -1.3416089553   -0.8806443331
 C   -3.1883581643   -1.6548994625   -0.5111456484
 N   -4.0949064888   -2.4779087314   -1.1885111647
 C   -5.4873891993   -2.4121765487   -0.7777876313
 C   -3.3526507593   -1.0111951051    0.7381371552
 N   -2.2462335574   -0.3604940208    1.1080717858
 H    0.8643898863    1.9875441200   -0.2731659425
 H   -0.4663434745    1.5821338665   -1.3751878847
 H   -0.8188071029    2.1083711420    0.2817699705
 H    0.6103398558   -0.5133942847   -0.4630644182
 H    0.2800493209    0.0376002279    1.1840645319
 H   -1.3094090759   -1.6109230063   -1.7489058528
 H   -3.9897876603   -2.4223138793   -2.1916146653
 H   -6.0818067693   -3.0580341606   -1.4287237482
 H   -5.5900886836   -2.7900153882    0.2450718502
 H   -5.9148653740   -1.3961702434   -0.8056877399
 H   -4.2176546190   -1.0059164773    1.3833695358