14

 O    0.1167767214    1.2953298419   -0.3246763638
 C   -0.0523786955   -0.0796602890   -0.0967474835
 C    0.3694219804   -0.5838999646    1.3071040368
 N   -1.0501331702   -0.4988267328    1.7215589076
 C   -1.5032455664   -0.5386518788    0.3157684235
 C   -2.6392207785    0.3981333062   -0.0279787531
 O   -3.3928170017    0.2343392627   -0.9517089006
 H   -0.1314297069    1.7668041480    0.4788816142
 H    0.3697667021   -0.5900809052   -0.9620721329
 H    0.7823360916   -1.6016518190    1.2770954986
 H    1.0551620728    0.0614437922    1.8679876619
 H   -1.3912404487   -1.2406346262    2.3225206055
 H   -1.7264576410   -1.5347297652   -0.0898129192
 H   -2.7194538293    1.2766884995    0.6517935351