20

 C   -0.0361141373    1.4898863998   -0.0378780872
 C   -0.1529918874   -0.0215632976   -0.1067216106
 O    0.8092282486   -0.4972097562   -1.0454324451
 C    0.8364687465   -1.8926537813   -1.2004029671
 C   -0.3983721027   -2.3835565683   -1.8564919623
 N   -1.3859938460   -2.7151029334   -2.3558726899
 C    2.0788675265   -2.2646702886   -2.0317077634
 C    3.3614258170   -1.7528956695   -1.3832833613
 O    2.0454741137   -3.6811739482   -2.1108051813
 H    0.9674279759    1.7871413788    0.2793364512
 H   -0.2352166713    1.9347707655   -1.0165867953
 H   -0.7596695456    1.8896674690    0.6783839127
 H    0.0384581734   -0.4775179597    0.8776086235
 H   -1.1622990469   -0.3219044545   -0.4215505235
 H    0.9168843425   -2.4025467986   -0.2259910929
 H    1.9570671782   -1.8100507326   -3.0257105448
 H    3.4932782104   -2.2048177153   -0.3949446410
 H    4.2260366831   -2.0218445877   -1.9990994000
 H    3.3356331801   -0.6663622083   -1.2782791306
 H    2.6901430113   -3.9645390231   -2.7654830413