19

 C    0.2197642817    1.3218350373    0.3428873463
 C   -0.1921358438   -0.0640512267   -0.1703803916
 C    0.6533823051   -0.5546342301   -1.3376880137
 C    0.4861998806    0.2141647893   -2.6395499623
 C    2.0091100879   -1.1402437357   -1.1431987498
 O    2.1097409825   -1.8148194519    0.1394099510
 C    1.1597238461   -2.7499184672   -0.2729703788
 O    0.8118398841   -3.7225660970    0.3120054962
 C    0.9010434848   -2.0684334744   -1.5876851465
 H    1.2617257688    1.3177865489    0.6785599717
 H    0.1140476814    2.0958103606   -0.4235158128
 H   -0.4039830168    1.6145161414    1.1924142129
 H   -0.1324972209   -0.7768802961    0.6554953492
 H   -1.2412532133   -0.0483421124   -0.4906974542
 H    0.7331708572    1.2710026517   -2.5034851993
 H    1.1351970163   -0.1806140841   -3.4275021285
 H   -0.5478601165    0.1521376880   -2.9942188081
 H    2.9378664991   -0.8616989722   -1.6226174658
 H    0.6898092155   -2.5480453793   -2.5325133761