20

 C   -0.0819545833    1.5180838835   -0.0132343559
 C   -0.0496179891   -0.0039313032    0.0754010979
 N    0.8313739881   -0.4368594752    1.1523065513
 C    0.9317194714   -1.8097668735    1.3986112680
 C    1.4457761953   -2.4322250364    2.5253457424
 N    1.3815361869   -3.7746045660    2.2969468830
 C    1.8500547107   -4.8352491256    3.1598481194
 N    0.8684590580   -4.0658226285    1.0951870389
 C    0.5859929078   -2.8831993536    0.5431527038
 H    0.9240399889    1.9190178001   -0.1675711334
 H   -0.7177866092    1.8427314009   -0.8415227117
 H   -0.4859470533    1.9587984655    0.9059993075
 H   -1.0750088807   -0.3969488301    0.1914206750
 H    0.3367193421   -0.4165491319   -0.8645415423
 H    0.6804798354    0.0971610673    1.9981351905
 H    1.8406253069   -2.0309914472    3.4451695043
 H    1.4818534660   -4.6886398069    4.1796633006
 H    1.4615089464   -5.7737067039    2.7652366505
 H    2.9448551979   -4.8805063192    3.1816988347
 H    0.1427834538   -2.8450594260   -0.4398182847