17

 C   -0.1553484187    1.4035202557    0.1935260046
 N    0.4363082700    0.1062203681   -0.1308095343
 C    0.8265408556   -0.7149109084    0.9151012951
 C    0.7343628904   -2.0637883597    1.1258225325
 C    0.0563707526   -3.0788062221    0.2582658291
 C    1.4382214864   -2.2946112730    2.3619827571
 C    1.8754080891   -1.0927897967    2.8034336633
 O    1.5107492195   -0.1085214825    1.9191807349
 H    0.5596417744    1.9896015812    0.7738348933
 H   -0.3579782109    1.9384606160   -0.7373580649
 H   -1.0892176815    1.3304339041    0.7718108239
 H   -0.1002374665   -0.4101048396   -0.8135556191
 H    0.7596317638   -3.6244091589   -0.3839861726
 H   -0.4729902574   -3.8248818414    0.8607381022
 H   -0.6873920030   -2.6150622027   -0.4003195547
 H    1.5772507004   -3.2460410101    2.8533443229
 H    2.4132837157   -0.7577022598    3.6733917568