19

 C    0.0187041058    1.3349728766    0.2437932453
 O   -0.0382983492    0.0532324720   -0.3446436188
 C   -1.2502817478   -0.5959638133   -0.1397411642
 C   -1.3298507375   -2.0655879752   -0.5846529335
 C   -0.0342564766   -2.8281350218   -0.2668792328
 C    0.3517633617   -2.5815623260    1.1757340514
 C   -0.4198150043   -1.7922901454    1.9229418124
 C   -1.6408480069   -1.2252387919    1.2421510943
 O   -2.2974271043   -2.2877734115    0.4800726138
 H    0.9825717410    1.7736907364   -0.0232536784
 H   -0.7864596565    1.9871888463   -0.1279675439
 H   -0.0550469221    1.2811690873    1.3400650412
 H   -2.0950971617   -0.0161395372   -0.5367064228
 H   -1.7368498187   -2.3001280342   -1.5715314027
 H   -0.1794180217   -3.9001721847   -0.4518699820
 H    0.7654756024   -2.4938120838   -0.9400095395
 H    1.2458560913   -3.0599084565    1.5647200270
 H   -0.2030277434   -1.5535198302    2.9584313823
 H   -2.3385601513   -0.7051514267    1.9009887008