19

 C   -0.2831053333    0.6688845350    0.7502345322
 C   -0.0359049586   -0.6214706133   -0.0360647973
 C    0.6954429552   -0.3420216279   -1.3659153211
 O    1.8753844657    0.3858753126   -1.1414790689
 C    1.0443907260   -1.6106145536   -2.1467729522
 O    2.2084178554   -1.8784866425   -2.3693722884
 C   -0.0249829915   -2.4950000397   -2.7220496637
 C   -0.9249799794   -3.3134049330   -1.8853771183
 O   -1.3942202634   -2.1406842903   -2.5409854438
 H    0.6600903345    1.1807153738    0.9517703272
 H   -0.9273500149    1.3535388749    0.1877522405
 H   -0.7744488997    0.4530158059    1.7036578473
 H    0.5741104106   -1.3096456122    0.5624241027
 H   -0.9893058266   -1.1107166588   -0.2544156642
 H    0.0131373403    0.2409220793   -2.0083201734
 H    2.5941945671   -0.1763052111   -1.4727682067
 H    0.2364124738   -2.8824337412   -3.7061774731
 H   -1.2890603584   -4.2561840663   -2.2889166322
 H   -0.8611907730   -3.2566940115   -0.8015232067