14

 C   -0.0233092060    1.5596135533    0.0501364182
 C    0.0277933144    0.0689840962   -0.0134611852
 C   -0.0147870778   -0.7958083494   -1.0745705564
 O    0.0622686517   -2.0763959991   -0.6528683852
 N    0.1602272706   -2.0860571116    0.7283579380
 C    0.1391511560   -0.8258985891    1.0905540414
 O    0.2155114453   -0.4397050665    2.3718163390
 C   -0.1256198134   -0.5467271280   -2.5157801717
 O   -0.1535691609   -1.4060672541   -3.3630277693
 H    0.8778241719    1.9588878570    0.5274658472
 H   -0.1092588112    2.0072496677   -0.9416787138
 H   -0.8764393151    1.8936353825    0.6500839189
 H    0.2833123078   -1.2323596607    2.9212348211
 H   -0.1837807232    0.5320224719   -2.7716530021