13

 C   -0.0126624484    1.5409237855   -0.0289307867
 C    0.0246953958    0.0137284826    0.0301868124
 O    0.6792547520   -0.4530770409    1.1989358291
 C   -1.3947262259   -0.5761423308    0.0864943016
 C   -1.4049194703   -2.0344493915   -0.0038910845
 N   -1.4192683659   -3.1856862677   -0.0978011370
 H    1.0050738766    1.9445851685   -0.0395904300
 H   -0.5199937247    1.8933614729   -0.9328821655
 H   -0.5289053675    1.9455507873    0.8472474610
 H    0.5218678275   -0.3747474074   -0.8716990931
 H    1.6109137323   -0.2201172992    1.1404340764
 H   -1.8625215930   -0.2736774106    1.0301136360
 H   -2.0008378685   -0.1692699989   -0.7294175898