13

 O   -0.1961398794    0.2696585069    0.6119182100
 C    0.0985297656    1.0900574332   -0.2121074961
 C    1.2974270682    2.0148801557   -0.0564560914
 O    1.4335850048    2.7437448496   -1.2700506830
 C    2.5228543629    3.6281596424   -1.2917996247
 C    2.6836095713    4.1263395121   -2.6683361198
 N    2.8401683969    4.5062154869   -3.7459851535
 C    2.3467325602    4.7592914514   -0.3476853825
 N    2.1975481676    5.6001135377    0.4289852961
 H   -0.4773425197    1.2477377061   -1.1485085204
 H    1.1230806811    2.6855971795    0.7976257493
 H    2.1953664765    1.4162763662    0.1560865696
 H    3.4573431240    3.1132620522   -1.0108921936