14

 C    0.0167950893   -1.1430925907    0.1462750746
 C   -0.0298706354    0.0523633458    0.0501278855
 C   -0.0488238387    1.5162191040   -0.0661490526
 O   -0.6867656429    2.1086141332    1.0652664754
 C    0.1910855128    3.0449620984    1.7005468906
 C    1.4716612819    2.9704059880    0.9256516810
 C    1.3538647501    2.1151525245   -0.0787232071
 C   -0.7877246587    1.9031579194   -1.2994220012
 N   -1.3374623891    2.2261793109   -2.2625245891
 H    0.0454831187   -2.2018690548    0.2321272123
 H   -0.2581567640    4.0478107502    1.6731984036
 H    0.3154864124    2.7624188723    2.7548542157
 H    2.3505178016    3.5498354074    1.1770458569
 H    2.0835671021    1.8342241714   -0.8239498455