23

 C    0.2585367155    1.5095854604    0.1642677631
 C   -0.1957318584    0.0703353211   -0.1077522088
 C    0.5640288953   -0.5614427279   -1.2557382569
 C    1.9151158699   -1.2544225587   -1.0398055566
 C    2.4631709877   -1.4043751733    0.2747013583
 C    2.9362172618   -1.5257732847    1.3756342870
 C    0.6793161781   -2.0458541199   -1.4907549013
 C    0.0417181807   -3.0321901952   -0.5314064304
 C    0.6851918605   -2.5184262631   -2.9334463183
 H    1.3156752646    1.5349392586    0.4459643702
 H    0.1317820683    2.1406983288   -0.7225461625
 H   -0.3193319789    1.9583659092    0.9781430926
 H   -0.0673401865   -0.5227759574    0.8020591199
 H   -1.2687170114    0.0585581377   -0.3400871625
 H    0.5326689848    0.0356973717   -2.1659734846
 H    2.6616482735   -1.0820503824   -1.8108160537
 H    3.3582048694   -1.6378721671    2.3431920555
 H    0.1494596016   -2.7313042711    0.5115064005
 H   -1.0266711618   -3.1455053837   -0.7486030512
 H    0.5076750741   -4.0184306273   -0.6366703246
 H    1.2215323632   -3.4689996832   -3.0350524169
 H   -0.3381428481   -2.6744629123   -3.2952908601
 H    1.1641379763   -1.7898123104   -3.5951073287