18

 N   -0.0991567478    1.3620630519   -0.0918042506
 C   -0.1074146354   -0.0380999670   -0.0771989828
 C   -1.1828755772   -0.9084159643    0.0033889185
 C   -2.6180803539   -0.4916918991    0.0356279278
 O   -2.9180323885    0.5440697804   -0.9172272089
 C   -0.6322099530   -2.2340608523    0.0788280138
 N   -1.3933974672   -3.4110559755    0.2457496652
 C    0.7348747510   -2.1268975857    0.0394906473
 N    1.0415280837   -0.7681356325   -0.0628458690
 H    0.5662655798    1.7458772669   -0.7541164229
 H   -1.0282606407    1.6959927854   -0.3286794289
 H   -3.2766211903   -1.3600457117   -0.1185069737
 H   -2.9050276347   -0.0555592511    1.0005699152
 H   -2.5851651517    0.2327520032   -1.7666501411
 H   -2.2051130181   -3.4310737195   -0.3612052091
 H   -0.8436817322   -4.2415293473    0.0618145254
 H    1.5102366696   -2.8740416027    0.0567869143
 H    1.9644660566   -0.3781138389    0.0042826095