20

 C   -0.2047403887    1.5486280567    0.0201789862
 C    0.0512569658    0.0302403681    0.0134615984
 C    0.8025427964   -0.4563602753   -1.2012049373
 C    2.0783937314   -0.8446576021   -1.1673347689
 C    2.7994142227   -1.3606655736   -2.3846552161
 C    1.7866546337   -1.7348092695   -3.4679422917
 O    0.8332655980   -0.7017543163   -3.6474607801
 C    0.0308377727   -0.5041979312   -2.5013908653
 H    0.7397413861    2.1005969317   -0.0079445705
 H   -0.8013967263    1.8659463599   -0.8407106951
 H   -0.7463161049    1.8454867027    0.9237985403
 H    0.6125342578   -0.2437568532    0.9134793723
 H   -0.9139947317   -0.4919857382    0.0801558101
 H    2.6317444845   -0.8000392289   -0.2312835654
 H    3.4982662328   -0.6036266259   -2.7670889846
 H    3.4073775364   -2.2380595293   -2.1285496562
 H    2.2684877449   -1.8788801405   -4.4390992488
 H    1.2814083215   -2.6767202914   -3.1952862290
 H   -0.7442245324   -1.2921353463   -2.4306206745
 H   -0.5006283407    0.4395446726   -2.6695951337