21

 C    0.0236842607    1.5716254493   -0.2039386544
 C    0.0408887494    0.0671131468    0.0885451046
 C   -1.3441972675   -0.5702647958    0.0299053674
 C   -2.1424854517   -0.7034263990   -1.3127782340
 C   -1.2312438427   -1.5261860853   -2.2681029381
 C   -1.4418457232   -2.6788376731   -1.2917795915
 C   -2.7316590295   -2.0685416834   -0.7690033032
 C   -1.5348558432   -2.0827034903    0.1320592981
 O   -1.3848053293   -2.8712051141    1.2566821745
 H    1.0257481043    2.0054380963   -0.1301730965
 H   -0.3528968077    1.7750095593   -1.2123096098
 H   -0.6229008692    2.1036660155    0.5027294115
 H    0.7201135715   -0.4371311921   -0.6087526302
 H    0.4566921319   -0.1048045776    1.0905747822
 H   -2.0021260241   -0.0935444652    0.7681202245
 H   -2.7292752947    0.1341559565   -1.6830400888
 H   -1.7335483578   -1.7187037385   -3.2209077334
 H   -0.2171834869   -1.1599280832   -2.4639748038
 H   -1.2257704273   -3.7328818322   -1.4172887229
 H   -3.7309397772   -2.4618371293   -0.6577444544
 H   -0.4672832857   -3.1608164949    1.3044581284