14

 O   -0.0665878690   -0.1249369449   -0.1291768255
 C    0.0070529448    1.0751139430   -0.1153962730
 C    1.3014556643    1.8615543578   -0.1342430892
 C    1.3299170143    2.8847550491   -1.2798809072
 C    2.5997737985    3.7574208625   -1.2335300575
 C    2.6405772104    4.7394409670   -2.3149458677
 N    2.6538765980    5.5099713441   -3.1757778889
 H   -0.9114969385    1.7074076443   -0.0870476473
 H    1.3759054661    2.3921012960    0.8268015667
 H    2.1355496975    1.1564711914   -0.1975687163
 H    1.2839242693    2.3681646956   -2.2441217265
 H    0.4479004046    3.5327880007   -1.2278901989
 H    2.6594358350    4.2898125175   -0.2769555387
 H    3.4951035447    3.1285806459   -1.2992064001