19

 C   -0.3534437078    1.1713995605   -0.3625833800
 C    0.2114345556   -0.1761824534    0.0548775466
 C    1.2225502917   -0.9601256684   -0.8785197375
 C    2.1059241423   -1.2785602701    0.3635482368
 C    1.3195945540   -0.2090421386    1.1218154249
 O    1.5376540571    0.4678048326    2.0843387529
 C    0.6155120912   -2.1529830022   -1.5938919262
 C    0.3034149329   -1.9811161839   -3.0666058183
 O    0.3687159219   -3.1776133287   -0.9970244181
 H    0.4418879525    1.8496654887   -0.6877198774
 H   -1.0738331825    1.0706721491   -1.1805355059
 H   -0.8650347017    1.6417092920    0.4824270376
 H   -0.5860384241   -0.8656113678    0.3611840500
 H    1.7058387812   -0.2725623983   -1.5771328866
 H    1.8763889233   -2.2839850792    0.7332966581
 H    3.1871931283   -1.1485888265    0.2888324017
 H   -0.3020457847   -1.0817803930   -3.2280777741
 H    1.2345484957   -1.8366950784   -3.6274558102
 H   -0.2208177969   -2.8583490344   -3.4469503543