20

 C   -0.0004965758    1.5632909271    0.0299113906
 C    0.0224700822    0.0346847453   -0.0254025329
 C    0.7405189762   -0.4920510041   -1.2812568108
 C    1.0220758402   -1.9675714330   -1.1800422917
 C    0.9478737626   -2.6397795229   -0.0289505449
 N    0.6701943772   -2.0124935008    1.1924757862
 C    0.6881485481   -0.5535850837    1.2267039393
 C    0.4681739540   -2.7547659264    2.3292191113
 O    0.4881217085   -3.9644544139    2.3874462454
 H    1.0153584555    1.9700844053    0.0980128427
 H   -0.4633548717    1.9792954770   -0.8704161696
 H   -0.5657711366    1.9267310484    0.8945901073
 H   -1.0102882546   -0.3368508128   -0.0475681022
 H    0.1253684136   -0.2873943478   -2.1665991407
 H    1.6745646140    0.0691748862   -1.4382368429
 H    1.2732221826   -2.5129768160   -2.0829454522
 H    1.0952734135   -3.7078314887    0.0624310404
 H    1.7272892712   -0.1969836317    1.2848837353
 H    0.1743000095   -0.2230669874    2.1345613379
 H    0.2796578899   -2.1082393999    3.2079862814