16

 O   -0.7451271089    1.3069765396    0.5801930313
 C   -0.3809839570    0.0056084655    0.3199899088
 C   -0.7851119145   -1.1554353355    1.1694188908
 C   -1.3871394561   -1.0256343806   -0.2409408195
 C   -2.8625703567   -0.7094582857   -0.4811108671
 C   -3.6741945768    0.0527396515    0.5366676793
 O   -3.2731650992    0.6721372078    1.4949249756
 C   -0.8635325389   -1.9199682507   -1.2392020657
 N   -0.4450412174   -2.6317486004   -2.0510868909
 H   -1.5321179043    1.2938669635    1.1478324686
 H    0.6009759088   -0.0337391380   -0.1397065571
 H   -0.0780932472   -1.9605597518    1.3324933407
 H   -1.4590219357   -0.9640044178    1.9952747248
 H   -2.9774549302   -0.1459538291   -1.4212660182
 H   -3.4127058649   -1.6438755287   -0.6596246965
 H   -4.7633748710    0.0149297505    0.3240805351