19

 C   -0.0322647421    1.4256515666   -0.1002930207
 N    0.0477397751   -0.0032526840    0.0919105081
 C   -1.1867156993   -0.7460459895    0.4169308401
 C   -0.4020303327   -1.5618142644    1.4769265095
 O    0.1007951812   -2.8209711162    1.0822189671
 C    1.3244231155   -2.6329236560    0.3650164008
 C    1.9726918270   -1.3777286245    0.9699168776
 C    0.7443905261   -0.5281891235    1.2897616673
 H    0.9713777555    1.8418886979   -0.2390260605
 H   -0.6114528753    1.6481550492   -1.0029970652
 H   -0.5085992401    1.9569140080    0.7469417312
 H   -1.9676077531   -0.1209949289    0.8801210039
 H   -1.6232120556   -1.3066046641   -0.4169654189
 H   -0.8816883036   -1.6755879060    2.4500222284
 H    1.9187099835   -3.5426483317    0.4841239232
 H    1.1243694587   -2.4777889799   -0.7035860117
 H    2.5125766965   -1.6224954591    1.8912446628
 H    2.6590046923   -0.8834282570    0.2778294259
 H    0.8883322707    0.2043692931    2.0936663411