12

 O   -0.1068002900    0.0478119322    0.1009109792
 C    0.0738822006    1.1961485478   -0.1383716692
 O    0.9122448507    1.9681472903    0.6319727620
 C    0.9954999533    3.2870151684    0.3312790360
 C    2.0356583870    4.0582264400   -0.0685506538
 C    1.5109843480    5.3936937114   -0.1311697453
 C    0.2058097750    5.3140507690    0.2293562524
 O   -0.1277927828    4.0202683445    0.5228057841
 H   -0.3752326108    1.7704136991   -0.9656743015
 H    3.0355711949    3.7207213645   -0.2845105447
 H    2.0444112085    6.2880467283   -0.4117084393
 H   -0.5918201744    6.0307242644    0.3248831602