18

 C   -0.1801406451    1.4823508367    0.1594651039
 C   -0.0242860983   -0.0181971833    0.0109654825
 C    1.3454333053   -0.5878880247   -0.3288264736
 C    0.7865833680   -0.7821079776    1.0479180854
 C   -1.1791438352   -0.7377869346   -0.5593304467
 N   -1.3051532925   -2.0102640583   -0.7916379032
 C   -2.5786652306   -2.1458799083   -1.3263807992
 C   -3.1658090555   -0.9303565124   -1.3913363840
 O   -2.2760176950   -0.0117259456   -0.9000464704
 H    0.7287763717    1.9124991384    0.5890297498
 H   -0.3592571225    1.9637515082   -0.8069960929
 H   -1.0181914798    1.7346387845    0.8166456192
 H    1.3652833673   -1.4466971053   -0.9889121329
 H    2.1506959572    0.1256022745   -0.4680830934
 H    1.2033994997   -0.2036054759    1.8655438254
 H    0.4316005684   -1.7711936694    1.3112799629
 H   -2.9725700327   -3.1052392641   -1.6223929639
 H   -4.1166076805   -0.5514128028   -1.7225456091