18

 C    0.1784202845    1.6214526471   -0.0851334422
 C    0.0238563697    0.1024243347   -0.0415712251
 C    0.7582349561   -0.6412944975   -1.1936381649
 O    1.6298606061   -1.5767222474   -0.5177509733
 C    1.4616368137   -1.3419529128    0.8106934177
 C    2.3166950339   -2.1732709987    1.7125380528
 C    1.9848549770   -1.9767858703    3.1831757630
 O    2.8208827107   -1.9070151177    4.0446143971
 N    0.6227994014   -0.4642871789    1.1815785769
 H    1.2368904491    1.9015294544   -0.0772577166
 H   -0.2809997752    2.0325300620   -0.9902993263
 H   -0.3009548590    2.0780406415    0.7843866876
 H   -1.0451907278   -0.1429834237   -0.0419275914
 H    0.0931864680   -1.2073625481   -1.8502907524
 H    1.3781035892    0.0254875052   -1.8021303934
 H    2.1630553523   -3.2327481811    1.4609029257
 H    3.3778812403   -1.9636661720    1.5467461573
 H    0.9012746902   -1.9262901767    3.4096936076