18

 C   -0.0365767599    1.5538943711    0.0036283632
 C   -0.0250632304    0.0147345277    0.0045078098
 C   -1.4592555609   -0.5441947652    0.0014800986
 C    0.7653250675   -0.5202939859   -1.1897299648
 O    0.5121671912   -0.3475713617   -2.3520630379
 C    1.9630529512   -1.3342423815   -0.6726468293
 N    1.8206157467   -1.2388008344    0.7626276833
 C    0.7513480654   -0.5133075870    1.2192421937
 O    0.4750058824   -0.3243198726    2.3835362864
 H    0.9771705867    1.9665941458   -0.0050276196
 H   -0.5634429647    1.9209280529   -0.8810418390
 H   -0.5408066230    1.9127888959    0.9043907414
 H   -1.9941219792   -0.1896844034   -0.8835001536
 H   -1.4675038709   -1.6386910285   -0.0081961064
 H   -1.9803571970   -0.2094076957    0.9019248770
 H    1.9023792744   -2.3639475561   -1.0481648980
 H    2.8980755861   -0.8976455993   -1.0469501050
 H    2.4545062045   -1.6682129223    1.4183208901