15

 C   -0.0046746775    1.4017610948    0.0121112735
 N    0.2530517407   -0.0206665408   -0.0960843714
 C    0.5971455531   -0.6261023462    0.9425740274
 O    0.8268770266   -1.9833565148    0.8536346372
 C    1.2764754357   -2.6576815537    1.9163799757
 C    1.3969298069   -4.0027638991    2.0882627868
 C    1.9477264178   -4.0916403482    3.3910681317
 N    2.1418715097   -2.9251240180    3.9558847379
 O    1.7069385954   -1.9875645541    2.9897013807
 H    0.6540087618    1.9387802886   -0.6784500966
 H   -1.0333539957    1.6049876244   -0.3037539035
 H    0.1393568850    1.8093468917    1.0242613557
 H    0.7361666500   -0.2104130856    1.9427165520
 H    1.1313131592   -4.7838324907    1.3986991856
 H    2.2116748913   -4.9810459082    3.9466597172