17

 C   -0.0754874578    1.3877219397    0.0905850807
 N    0.0247855255   -0.0519401856   -0.0129403495
 C    0.1589600781   -0.7957532233   -1.1517095557
 C    0.1366919791   -2.1107122526   -0.7486684871
 C    0.2263188030   -3.5401298514   -1.1655628929
 O    0.0710620663   -4.2787610778    0.0626157542
 C   -0.0366243424   -3.4271406273    1.2147474376
 C   -0.0160813259   -2.0477311955    0.6402695234
 N   -0.0884131523   -0.8100657692    1.1061015659
 H    0.2757930934    1.8370050634   -0.8401028522
 H   -1.1093211682    1.6992182717    0.2721153762
 H    0.5470049525    1.7352723742    0.9174437306
 H    0.2564473508   -0.3196091239   -2.1145068720
 H   -0.5651877469   -3.8488159000   -1.8624004320
 H    1.1913802168   -3.8015635563   -1.6236733449
 H   -0.9659367989   -3.6615841586    1.7510670485
 H    0.8029615369   -3.6200719775    1.8976301490