16

 C    0.0655419865    1.4677291024    0.0382325724
 C   -0.0801318614   -0.0189232371   -0.0196528706
 C   -0.1558137388   -0.8030956043   -1.1099954434
 C   -0.0318726370   -2.2325766872   -0.6681684714
 O    1.3793097023   -2.3803711557   -0.1763586921
 C    0.9151490965   -2.1314298503    1.1255917072
 C   -0.5268961210   -2.2673909501    0.8096450311
 C   -0.0519753902   -0.8843493774    1.1908456531
 H    1.0332181847    1.7503402332    0.4713246065
 H   -0.0031337427    1.9151489879   -0.9566667303
 H   -0.7062422244    1.9214464387    0.6724011630
 H   -0.0884499485   -0.4773304077   -2.1401371077
 H   -0.2741210772   -3.0357798206   -1.3613866612
 H    1.5448074195   -2.4224040915    1.9577008982
 H   -1.3462529495   -2.8223851876    1.2482105182
 H   -0.2583352488   -0.4959751127    2.1818348470