18

 C   -0.0036649149    1.4559352238    0.0648227075
 N   -0.0114652717   -0.0019550437    0.0042927158
 C   -1.1787004433   -0.7050069995    0.0808886096
 C   -1.2257335651   -2.0666851218    0.0279698877
 C   -2.5248099800   -2.8228173100    0.1143200973
 C    0.0232350616   -2.7411688027   -0.1139177351
 C    1.1984631539   -2.0606077451   -0.1921828511
 C    1.2554661367   -0.6159767269   -0.1366750579
 O    2.2622332923    0.0779966720   -0.1990444394
 H    0.6033721506    1.7918906335    0.9088880397
 H    0.4443216609    1.8654898017   -0.8436763895
 H   -1.0271131762    1.8168735104    0.1728682309
 H   -2.0758847516   -0.1052666599    0.1876509753
 H   -2.6972814537   -3.4316011660   -0.7810872712
 H   -2.5378586605   -3.5052548343    0.9723570068
 H   -3.3745041070   -2.1424962517    0.2201511881
 H    0.0271263078   -3.8274781514   -0.1599029964
 H    2.1508456201   -2.5649525286   -0.2999580979