24

 C   -0.0256069833    1.4874411382    0.0510455854
 C   -0.0228743723   -0.0293708259    0.0149782409
 O   -1.3834741561   -0.4694480792   -0.0211315270
 C   -1.5720782235   -1.8033846933   -0.0158875694
 N   -2.7298327889   -2.2925372340   -0.0687717391
 C   -2.8598595534   -3.7427088823   -0.0353694431
 C   -3.5884133825   -4.1446484047    1.2528425545
 C   -3.6276010752   -4.2207748560   -1.2799183237
 C   -2.9041302909   -3.9378962302   -2.5976264666
 H    1.0008661183    1.8645176604    0.0780167563
 H   -0.5227772139    1.8917105437   -0.8347098275
 H   -0.5541408801    1.8494668628    0.9369358677
 H    0.5099954072   -0.3981380093   -0.8722485517
 H    0.4771160142   -0.4400416685    0.9030043344
 H   -0.6443153897   -2.3955417992    0.0420421598
 H   -1.8655512310   -4.2296288955   -0.0393620644
 H   -4.5750835756   -3.6729548781    1.2936473197
 H   -3.7179211620   -5.2307082606    1.3033495895
 H   -3.0256112013   -3.8228799395    2.1341971689
 H   -3.8068125760   -5.2984205209   -1.1782728712
 H   -4.6100605194   -3.7335091834   -1.2827633239
 H   -3.4811528627   -4.3060373834   -3.4516061506
 H   -2.7471445202   -2.8641861878   -2.7345647370
 H   -1.9231016717   -4.4272255632   -2.6251373618