23

 C   -0.2243205337    1.5340314775   -0.0267651219
 C    0.0469822982    0.0303196200   -0.0341949804
 C    0.9376535811   -0.4292503038   -1.2108081829
 C    1.5657314701   -1.7440544999   -0.7288211162
 C    1.9118492388   -1.4366638682    0.7377008554
 C    0.7632500354   -0.5409808824    1.2144590028
 C    0.8978178109    0.2233863634    2.5167556552
 C   -0.0497281160   -0.9442615738    2.4124542720
 O   -1.4268473564   -0.7048877604    2.3375493552
 H    0.7006115618    2.1061960168    0.1083950240
 H   -0.6757141778    1.8464094996   -0.9749511451
 H   -0.9175272509    1.8099388499    0.7734488796
 H   -0.9199116770   -0.4809709405   -0.1148009148
 H    0.3747826566   -0.5293085191   -2.1438521515
 H    1.7279186338    0.3131854067   -1.3871905697
 H    0.8262963809   -2.5526900613   -0.7796738554
 H    2.4332500890   -2.0547546071   -1.3180948392
 H    2.0324720368   -2.3339362802    1.3536095239
 H    2.8602708178   -0.8857041598    0.7852323611
 H    1.8124162132    0.1016220675    3.0899678466
 H    0.4529268602    1.2110022263    2.5790035706
 H    0.2214495204   -1.8726447755    2.9180998865
 H   -1.7241050234   -0.3928605757    3.1983661942