18

 C    0.0415093271    1.5834551542   -0.4191758677
 C   -0.0662672981    0.0665512739   -0.5866201031
 C   -1.1404074449   -0.5551504035    0.3131687183
 O   -2.4393631152   -0.0042807425    0.0815105555
 C   -1.1918191909   -2.0542055561    0.2009842262
 C   -0.2968733202   -3.0493960878   -0.1249398480
 N   -0.9209497956   -4.2582928318   -0.0303440561
 N   -2.1572473700   -4.0717347368    0.3334561819
 N   -2.3241512169   -2.7451131658    0.4796598729
 H    0.7827397499    2.0005556280   -1.1063009706
 H   -0.9195177998    2.0662317853   -0.6144474629
 H    0.3433732942    1.8465286853    0.6003305278
 H   -0.2936793497   -0.1908792518   -1.6301730594
 H    0.8947682076   -0.4090634086   -0.3582719374
 H   -0.9244597257   -0.2822954916    1.3548898016
 H   -2.6400439958   -0.1193421134   -0.8554109234
 H    0.7384808173   -2.9732257081   -0.4140013337
 H   -3.2195657934   -2.3610410290    0.7391799481