20

 C   -0.1369884087    1.5269074975    0.1133187835
 C   -0.0078892974   -0.0049614418   -0.0043793042
 C   -1.3969061391   -0.6431996574   -0.0823777586
 N    0.7243761162   -0.3460046998   -1.2410020212
 C    2.1406225516    0.0079883961   -1.2437493198
 C    2.8649432265   -0.2914670184    0.0398625273
 C    2.2076984683   -0.5657628316    1.1725629122
 C    0.7314298244   -0.5107937335    1.2552146229
 O    0.1437085521   -0.7989724822    2.2801687659
 H    0.8370179132    2.0152776482    0.2142376515
 H   -0.6286333652    1.9208730724   -0.7807499076
 H   -0.7312703255    1.7857124853    0.9934110096
 H   -1.9519296806   -0.2303928295   -0.9288085485
 H   -1.3224052299   -1.7286301155   -0.2144258974
 H   -1.9468316197   -0.4635161968    0.8422345175
 H    0.6448634000   -1.3481191904   -1.3858935454
 H    2.6248222706   -0.5156399264   -2.0763709171
 H    2.2561769368    1.0791132662   -1.4734859092
 H    3.9533233747   -0.2614663500    0.0226808512
 H    2.7198755916   -0.8049521125    2.0996838872