16

 C   -0.1146207579    1.4063198003   -0.1747433916
 N   -0.0919464777    0.0133389470    0.2447072792
 C   -1.2117044004   -0.7644351098    0.1381598764
 N   -1.2530051324   -2.0630549075    0.0525343566
 C   -2.6149059541   -2.3545894923    0.0641930718
 N   -3.0562683932   -3.6774490335    0.0483019983
 C   -3.3255537729   -1.2079957664    0.1482560693
 O   -4.6364285979   -0.9019945057    0.0742830323
 O   -2.4047001428   -0.1464961515    0.1886538483
 H    0.8344256181    1.8697317645    0.1029818635
 H   -0.2687457074    1.5358647345   -1.2558288402
 H   -0.9167399530    1.9306545246    0.3484133853
 H    0.7424194717   -0.5073771227    0.0192832693
 H   -2.3911150848   -4.2737665925   -0.4275530693
 H   -3.9754978879   -3.7748657327   -0.3633827128
 H   -4.9824989274   -0.7171077362    0.9574360736