23

 C   -0.1418984450    1.4581262352   -0.3059524320
 C    0.0879350226   -0.0324436891   -0.1836599779
 C    1.4812565215   -0.5999527523   -0.1264921698
 O    2.5396398921    0.3132536272   -0.1932146059
 C    0.6072184570   -0.6370802084    1.1010748020
 C    0.9260564503    0.0832862415    2.4157264431
 C    0.5883390462   -1.2331909612    3.1776728765
 C    0.1175676584   -1.8973024020    1.8433331698
 C   -1.3757944450   -2.1949165019    1.7550199916
 H    0.6605445611    2.0203636100    0.1757236180
 H   -0.1720459614    1.7632786405   -1.3573584159
 H   -1.0928098734    1.7488370758    0.1541580783
 H   -0.6278508454   -0.6461603955   -0.7271258733
 H    1.6637543104   -1.5446680077   -0.6429235425
 H    3.2351624179    0.0082043349    0.3990169950
 H    1.9538240154    0.4453217932    2.5168037866
 H    0.2569693540    0.9170888574    2.6482593550
 H    1.4580968553   -1.7166148951    3.6289573452
 H   -0.1877270511   -1.1448087423    3.9426730238
 H    0.6831961610   -2.8000779961    1.5833207541
 H   -1.9714637829   -1.3126739548    2.0152787024
 H   -1.6656829716   -2.5038555033    0.7445767616
 H   -1.6541270572   -3.0020687961    2.4418425642