17

 O    0.0856149986    1.4078864192    0.0489398470
 C    0.0632669279    0.0144582252    0.0645672276
 C   -0.2397474420   -0.7637179622   -1.1958074910
 C   -1.2477014955   -0.7326112556   -0.0587169404
 C   -1.2201422328   -1.8760917696    0.9714169970
 C   -1.5279559447   -3.2031506606    0.3046158623
 O   -0.7360284778   -4.0959289397    0.1407562084
 C    0.1640099731   -1.7735671048    1.5787449817
 C    0.8427398093   -0.7295301812    1.1036049805
 H    0.8106114058    1.6897051322   -0.5188244967
 H   -0.5155273029   -0.1827462690   -2.0703382342
 H    0.3152301411   -1.6745607913   -1.3950140050
 H   -2.1645019940   -0.1805470589   -0.2203685401
 H   -2.0073567999   -1.7136918827    1.7241285163
 H   -2.5764267576   -3.2917532349   -0.0624116838
 H    0.5395142148   -2.5116606845    2.2761391407
 H    1.8485349766   -0.4414636318    1.3879307396