12

 N   -0.1200983638    1.2989389108    0.1227813088
 C   -0.0229975762    0.0557777648   -0.0283497207
 O   -1.1678899392   -0.6930930685    0.0977438433
 C   -1.0685868712   -2.0381170366    0.0672891804
 N    0.0691928176   -2.6887258692    0.1304080170
 O   -0.2898001935   -4.0343142496    0.0727232217
 C   -1.6247014729   -4.1276069662   -0.0121255935
 C   -2.1966093178   -2.8995803016   -0.0212593515
 H    0.7883776395    1.7373299917   -0.0175957136
 H    0.8589777679   -0.5415121782   -0.2639119205
 H   -2.0215111501   -5.1299104102   -0.0593453565
 H   -3.2358014904   -2.6277981772   -0.0819666248