14

 C   -0.2775775017    1.6091786295   -0.0655165951
 C    0.0477646887    0.1083224949    0.0333394852
 C    0.8086997869   -0.4078584658   -1.1357288238
 C    2.0547544298   -0.9366507643   -1.2963147359
 O    3.0007399583   -1.1591578556   -0.3650181438
 N    2.2246866563   -1.2305374888   -2.6187288477
 N    1.1798430286   -0.9196439616   -3.2690739604
 O    0.2489143880   -0.3896889447   -2.3604944163
 H    0.6375506494    2.2054779145   -0.1226422757
 H   -0.8757659576    1.8197395520   -0.9559473990
 H   -0.8436036776    1.9327091941    0.8122976454
 H    0.6441118241   -0.0947943378    0.9280118267
 H   -0.8832385095   -0.4626744529    0.1359979739
 H    3.7614167861   -1.5514326333   -0.8103160435