19

 C    0.0466521028    1.4822310064   -0.1024894126
 C    0.0283000710   -0.0199435342    0.0009758888
 O    0.4675325897   -0.6190652528   -1.1973733514
 C    0.3622598301   -1.9743228918   -0.8577733981
 C   -0.7935949221   -2.1762700763    0.0956471364
 C    0.6488928579   -2.1580978755    0.6152737505
 C    0.6952365671   -0.7545538185    1.2325463206
 C   -0.6704892638   -0.6201409592    1.9617615705
 C   -1.2541591528   -0.7791044714    0.5302993540
 H    1.0601327373    1.8365929500   -0.3138347937
 H   -0.6071716820    1.8156406377   -0.9141147677
 H   -0.2932442389    1.9484090473    0.8253154608
 H    0.6525196320   -2.6633736626   -1.6394346101
 H   -1.4332433142   -3.0481348693    0.0939338800
 H    1.1619787933   -3.0154430823    1.0287991211
 H    1.6353465178   -0.4199094755    1.6712981672
 H   -0.9252214637   -1.3881789288    2.6957375581
 H   -0.8369677432    0.3719520709    2.3891989040
 H   -2.2652843782   -0.4690363643    0.2661383215