17

 C    0.0037775840    1.5374804766   -0.0557167372
 C    0.0344524495    0.0827312789   -0.0184484501
 C    0.0565244368   -1.1207609504    0.0018562896
 C    0.0707825198   -2.5767205634    0.0523859739
 C    0.6621131532   -3.1613102014    1.3191878221
 C   -0.1736273972   -3.9845097680    1.9509473559
 C   -1.4963928312   -4.1281410072    1.2520667479
 C   -1.3643849871   -3.1993428500    0.0362191000
 O   -2.2037296268   -2.9899335004   -0.7926523057
 H    0.9223076044    1.9450527613   -0.4923304213
 H   -0.8375383264    1.8983497584   -0.6575713451
 H   -0.1021730267    1.9603860096    0.9493728378
 H    0.5906323184   -2.9611913736   -0.8394526358
 H    1.6614587337   -2.9028596645    1.6470264710
 H    0.0558023480   -4.5059511960    2.8730817804
 H   -1.7083821342   -5.1500290191    0.9112772643
 H   -2.3573142882   -3.8272246405    1.8626815724