8

 O   -0.0072092842   -0.0289197574    0.0033462925
 C   -0.0696911061    1.1704255743    0.0104816462
 C   -1.2708188377    1.9788696745    0.0309131873
 N   -1.2748368686    3.2718713289    0.0381137173
 O   -0.1020438938    3.9132914042    0.0259656007
 N    1.2004751052    3.1575833763    0.0038838771
 N    1.1660858961    1.9439913649   -0.0023679187
 H   -2.2423159009    1.4961302742    0.0410554976