17

 C   -0.1089363697    1.4710915818   -0.0164669178
 N    1.1947163750    0.7871629470    0.0624007885
 C   -0.0438158238   -0.0087055758    0.0107619556
 C   -0.3345796698   -0.8636810672    1.2253192089
 N   -1.7420137727   -1.2795407777    1.3760832040
 C   -0.7728127284   -2.2089018554    0.7577710303
 C   -0.7869221719   -2.1849947638   -0.7625828406
 O   -1.7157209216   -1.2633443212   -1.3343613561
 C   -0.3530806473   -0.8480754608   -1.2083625539
 H   -0.3966641385    2.0122151104    0.8801286910
 H   -0.3970446318    1.9502708610   -0.9485522109
 H    1.6503821723    0.7908542157   -0.8480756847
 H    0.2848734203   -0.7131302256    2.1032388083
 H   -1.8937567220   -1.5637791529    2.3418649440
 H   -0.4968705518   -3.1248292728    1.2676919128
 H   -0.6086533913   -3.0966220567   -1.3258344972
 H    0.1652927630   -0.6460988062   -2.1457112621