20

 C    0.1060484875    1.5378901816   -0.1043332395
 C   -0.0128449904    0.0331296686    0.0748253833
 O    0.5125626405   -0.6268270474   -1.0987563977
 C    1.1554187430   -1.7929714101   -0.7603092950
 N    1.4366643149   -2.7191936757   -1.5719119034
 C    1.4619860601   -1.7723748565    0.6912175553
 C    2.2291958072   -0.5429101043    1.1510213961
 C    0.7329795735   -0.5743231336    1.2632176087
 C    0.0466772458   -0.5768736030    2.6065084486
 H    1.1530343046    1.8438557640   -0.1772862400
 H   -0.4118118450    1.8556646618   -1.0131880978
 H   -0.3489601745    2.0547845373    0.7464742107
 H   -1.0754162298   -0.2401188431    0.1565326745
 H    1.0785078195   -2.4942373287   -2.5018367648
 H    1.5813197786   -2.7144049001    1.2086139251
 H    2.7946751680   -0.6492654533    2.0702598840
 H    2.7061383674    0.0744415008    0.3969145763
 H   -0.0915722912    0.4426050113    2.9847803069
 H   -0.9404168445   -1.0491210258    2.5481284844
 H    0.6367602147   -1.1239296538    3.3474898843