19

 O   -0.0072334363    1.4130548998    0.0206002766
 C    0.0341360279    0.0033278391    0.0209314594
 C    0.3310737855   -0.6583211273   -1.3699724612
 C   -0.9552524885   -1.4910582324   -1.2244351759
 O   -0.7640058143   -2.6542476913   -0.3858806231
 C   -1.2090925237   -1.9428884318    0.8050646638
 C   -0.0819626751   -1.7318150550    1.8125145848
 C    0.8068251418   -0.6033144361    1.2235439760
 C   -1.3865439042   -0.6464760470   -0.0005217371
 H    0.8944087856    1.7388705497   -0.0758735423
 H    0.2283120396    0.0911799446   -2.1610574638
 H    1.2639971816   -1.2146683243   -1.4952110894
 H   -1.5594609087   -1.7109888130   -2.1069286389
 H   -2.0998884234   -2.4199452050    1.2276521355
 H   -0.5124537566   -1.4230570682    2.7717574952
 H    0.4619140327   -2.6647384998    1.9848272710
 H    1.7881116058   -0.9754618574    0.9147435133
 H    0.9726872392    0.1860953070    1.9622358777
 H   -2.2629595188   -0.0087669116    0.0788256484