19

 C    0.0392253127    1.4889159098    0.1043238153
 C    1.3278967193    0.7255962026    0.0342538791
 O    1.6357878470    0.1397355344    1.3023795156
 C    0.4394364671   -0.6892735185    1.2133425224
 C    0.7957808120   -2.1581847283    0.9521396669
 O   -0.1843837429   -2.7836397940    0.1405818573
 C   -0.2100451583   -2.2357908102   -1.1685539300
 C   -0.7045437852   -0.7811986704   -1.1604268783
 C    0.0053928180   -0.0100120951   -0.0850543864
 H   -0.2612961932    1.9464324155    1.0437346922
 H   -0.2125144119    2.0573138138   -0.7871301920
 H    2.1457747430    0.9198783888   -0.6506092507
 H   -0.2064610308   -0.5679668742    2.0906779211
 H    1.7833639759   -2.1884980838    0.4659108392
 H    0.8485363698   -2.7331126135    1.8802868488
 H    0.7973434669   -2.2898054643   -1.6137839627
 H   -0.8773352441   -2.8724386790   -1.7558920345
 H   -0.5599393688   -0.3245266929   -2.1468170875
 H   -1.7839139367   -0.7756468707   -0.9595695258