16

 O    0.0317978857    1.3421907538    0.8059381264
 C    0.0370785304    0.0595590890    0.2421016600
 C   -0.5602901408   -1.0193067527    1.0735228161
 C   -1.2792847163   -0.5703133493   -0.1964876340
 C   -2.5436526828    0.1759757556   -0.1296882581
 N   -3.6128353897   -0.0535961446   -0.8800214848
 C   -4.4992469801    0.8828375637   -0.4421583644
 N   -4.0600493893    1.6757062205    0.5201117659
 N   -2.8028605172    1.2041140441    0.7109904151
 H    0.0373528701    1.9840350715    0.0864269333
 H    0.9186567925   -0.1719860396   -0.3525990301
 H   -0.0961186691   -1.9983857599    1.0786546579
 H   -1.0035309905   -0.7176176536    2.0162993295
 H   -1.2469171802   -1.2445902552   -1.0438888196
 H   -5.4965389954    0.9810464013   -0.8445121279
 H   -2.1639454672    1.6463270153    1.3525211047