17

 O   -0.1402162574    1.3281902200    0.2318389791
 N    0.0077817710   -0.0633338206    0.2239941751
 C   -1.0937112503   -0.6401812188   -0.0345227199
 C   -2.4572213405   -0.0329388512   -0.2758881373
 C   -3.3736552214   -1.2429423751   -0.5528248035
 C   -2.6911040494   -2.4159810990    0.1764788378
 C   -1.1765194665   -2.1668496646   -0.0598705556
 C   -0.7473801666   -2.6969990395   -1.3587769456
 N   -0.4290186108   -3.1186366749   -2.3869882344
 H    0.7527719766    1.6298706167    0.4319630163
 H   -2.7624450109    0.5180728231    0.6222641123
 H   -2.4297580106    0.6987151051   -1.0880721016
 H   -4.4008744981   -1.0838177638   -0.2179046171
 H   -3.4067263491   -1.4499825249   -1.6274877021
 H   -2.8803544963   -2.3584874791    1.2536941491
 H   -3.0143208964   -3.3977981806   -0.1735188091
 H   -0.5433696933   -2.6089954930    0.7132875366