13

 O    0.0025335436   -0.0115145064    0.1475552190
 C   -0.0470292445    1.1868103418    0.0958874079
 C   -1.2732278476    2.0846677265    0.0352850052
 C   -0.7721429925    3.4706669015    0.4994273623
 C    0.6943841091    3.5524009527    0.0197129376
 C    1.2062020137    2.1216568732    0.0859890070
 O    2.3411887402    1.7330023879    0.1291264838
 H   -1.6018553790    2.1234562311   -1.0127979102
 H   -2.1011430596    1.6760671534    0.6180452161
 H   -1.3850784738    4.2882925384    0.1158100635
 H   -0.8052549009    3.5266576774    1.5926191188
 H    0.7401678133    3.8704658540   -1.0313430545
 H    1.3278494681    4.2339359785    0.5908861436