18

 C    0.2508838308    0.6424932229    0.9950338074
 C   -0.1023076551    0.1355611546   -0.3839290839
 O    0.6022865830    0.3112230724   -1.3503962821
 C   -1.4418054637   -0.6209984659   -0.4980241390
 C   -1.6463547435   -1.3116955868   -1.8638051340
 O   -1.7447566659   -2.7146441011   -1.5261016471
 C   -1.6481127833   -2.7896324856   -0.1756368351
 C   -1.7298307258   -4.1667827337    0.3878427519
 N   -1.5018607977   -1.7129089089    0.4908152951
 H    1.2131117082    1.1546880488    0.9695421248
 H   -0.5264514406    1.3276397124    1.3527816508
 H    0.2725964918   -0.1960434465    1.6967850786
 H   -2.2326839845    0.1086551922   -0.2759216345
 H   -2.5675465638   -1.0165971108   -2.3714493962
 H   -0.7919815418   -1.1590269639   -2.5264403357
 H   -2.6773600340   -4.6352065369    0.1045212913
 H   -0.9257045391   -4.7876431245   -0.0192641269
 H   -1.6493571249   -4.1267560289    1.4733499844