20

 C    0.4065498227    1.4387101050    0.2170759068
 C    0.2557240747   -0.0642602388    0.1506280154
 C    1.4676215716   -0.9689802260    0.2456201591
 C    0.4690607319   -0.9053572301    1.3863820098
 O    0.8107927786   -0.1991194801    2.5358944416
 C   -0.4330393249   -2.0996125268    1.6108469647
 O    0.2521009665   -3.3708422246    1.8024700041
 C    0.9816875744   -3.5577002140    2.8955076839
 N    1.2359845411   -2.6673804274    3.7659047288
 H    1.1528000128    1.7188131899    0.9630309845
 H    0.7137136373    1.8420855744   -0.7540437607
 H   -0.5375245160    1.9183540147    0.4971418301
 H   -0.5301694087   -0.4099381022   -0.5174701028
 H    1.5143096689   -1.8607869730   -0.3707334499
 H    2.4231733604   -0.4931196876    0.4376497840
 H    1.0929882008   -0.8741955880    3.1838101796
 H   -1.0709214282   -1.9164690178    2.4812981581
 H   -1.0537282224   -2.2965385195    0.7354256024
 H    1.3267762042   -4.5951212953    2.9288377699
 H    1.8034480844   -3.0446161628    4.5195372805