14

 C    0.0959071995    1.4456868950   -0.0364518439
 C   -0.0330917732   -0.0323643767    0.0940569324
 O    0.5832879829   -0.9182114451   -0.9686148487
 C    0.0363004079   -1.9154712857    0.0011040942
 C    0.6041930256   -1.0167375022    1.1404192407
 O    1.9832698611   -0.9598570334    1.2795675754
 C   -1.2189282462   -1.0183464999   -0.0137900737
 O   -2.3965620758   -1.0503768558   -0.1616004767
 H    1.1360765815    1.7554683400    0.1044193450
 H   -0.2463897931    1.7796369589   -1.0196150872
 H   -0.5154968785    1.9361491058    0.7271963434
 H    0.1954011334   -2.9685123105   -0.2178271710
 H    0.1488915503   -1.0831314724    2.1310296334
 H    2.3373248443   -0.9256956280    0.3788689666