16

 C    0.1006336734    1.5167740376    0.0586164919
 C   -0.0388629621    0.0330604379    0.0436427410
 C   -1.1853823720   -0.6817432886    0.0375017745
 N   -2.4589469464   -0.1326915443    0.0714048215
 C   -1.1120357789   -2.1510455520    0.0477683920
 N   -2.1995808229   -2.8275789175    0.0331016209
 N    0.1659698856   -2.7295488879    0.0653947852
 C    1.1801671483   -1.9577154902    0.0571174794
 O    1.1842605566   -0.6181662836    0.0402138100
 H    0.9394118017    1.8104759867    0.6970320427
 H    0.2895230581    1.9290738258   -0.9409661759
 H   -0.8089583027    1.9761587999    0.4536423542
 H   -2.6018193376    0.7000942579   -0.4792756255
 H   -3.1547266986   -0.8512098772   -0.0972019107
 H   -1.9829239700   -3.8246154601    0.0425540514
 H    2.1939246273   -2.3477783343    0.0606927276