16

 C    0.0022291547   -1.1078753389    0.6959859840
 C   -0.0189797666    0.0165609920    0.2687892362
 C   -0.0793794645    1.3559994313   -0.2551293031
 C   -0.0980798560    2.5387150120    0.7003541163
 C    1.1163131622    2.2660871217   -0.1463699567
 O   -0.7777317110    1.4897310988   -1.4752078795
 C   -2.1357406350    1.1063698208   -1.4329436450
 C   -3.0019390221    2.0915327179   -0.7572608841
 N   -3.6850868559    2.8654710613   -0.2384536528
 H    0.0368131993   -2.0992519787    1.0759553871
 H   -0.7350892496    3.3675513723    0.4179303653
 H   -0.0564245241    2.3252465633    1.7615890214
 H    2.0071979594    1.8658070193    0.3214059011
 H    1.2861954176    2.9076771049   -1.0031525537
 H   -2.4615938681    1.0128903988   -2.4727188161
 H   -2.2624608403    0.1307523032   -0.9455011604