19

 O   -0.1435728772   -0.0522343384    0.0439172719
 C   -0.0444107965    1.1522887092    0.0235443909
 C    1.2361696416    1.9081097644   -0.0085074817
 C    1.1072775154    3.2509611163   -0.0310181027
 C    2.1797685220    4.2955751568   -0.0550859462
 C    3.5025303372    3.9215103280    0.6282706015
 C    4.3280394156    2.8361655944   -0.0727133955
 C    3.7343709574    1.4555236395   -0.0987005225
 C    2.4480422763    1.0878690956   -0.0482533891
 H   -0.9501175733    1.8000994638    0.0292023021
 H    0.0869949270    3.6350597450   -0.0336385500
 H    2.3697253300    4.5797937365   -1.1019679640
 H    1.7814321192    5.2034926271    0.4146483391
 H    4.1149941490    4.8275573353    0.6967617825
 H    3.2955588589    3.6064448393    1.6573955488
 H    4.5570354259    3.1506502610   -1.1024649346
 H    5.3048419689    2.7742901707    0.4239783849
 H    4.4649315069    0.6512761175   -0.1651792741
 H    2.2242301558    0.0248502381   -0.0644637714