21

 C    0.1705726122    1.7087976955    0.1324673325
 C    1.5552419717    2.0238857832   -0.4959927191
 C    2.2675934281    0.6441229270   -0.6171764675
 C    1.0877496485   -0.2885405292   -0.9363598239
 C   -0.0170793844    0.1685669463    0.0304340751
 O    0.0380617687   -0.5437374902    1.2637516376
 C    1.0118590366   -0.2243156646    2.2332682065
 C    2.4577783462   -0.0779309734    1.8271950194
 C    2.9908550056    0.2816372352    0.6588115065
 H    0.1002980383    2.0378144349    1.1719731403
 H   -0.6312161532    2.2209231209   -0.4057966087
 H    1.4265356234    2.4517835583   -1.4962482546
 H    2.1363926193    2.7391036617    0.0906049996
 H    2.9947986046    0.6619365118   -1.4338950383
 H    0.7598892441   -0.1210617720   -1.9701801274
 H    1.3120606152   -1.3501380214   -0.8134160914
 H   -1.0095876019   -0.0832348747   -0.3529450514
 H    0.7282334688    0.6917916345    2.7850258486
 H    0.9366360264   -1.0379668917    2.9643289469
 H    3.1369059368   -0.2393123106    2.6638970965
 H    4.0739764051    0.3800123189    0.6217484129