22

 C    0.0722390374    1.7075083919    0.0380120076
 C    0.0683247602    0.1815379364    0.1057457132
 N    0.6490390088   -0.3939848806   -1.1074669245
 C   -0.2643334046   -0.5312662544   -2.2864010774
 C    0.5453575472   -1.7420578287   -2.8375811750
 C   -0.7283307211   -2.5867460445   -3.0601681550
 C   -0.6349720753   -4.1046447851   -3.0065030445
 C   -1.0322539346   -1.8026554077   -1.7634726135
 C    0.4708292675   -1.8664401011   -1.2834916318
 H    1.0858141994    2.0791695047   -0.1370918655
 H   -0.5637499570    2.0692341888   -0.7772968121
 H   -0.3043906739    2.1405939794    0.9698311819
 H    0.6867406204   -0.1507128314    0.9495168110
 H   -0.9568343683   -0.1794252513    0.3038340976
 H   -0.6632834329    0.3151791209   -2.8480331378
 H    1.4615110765   -1.6764721804   -3.4249730390
 H   -1.3269283169   -2.2653011228   -3.9219004871
 H   -0.0441064927   -4.4444458635   -2.1491202132
 H   -1.6292256089   -4.5579102278   -2.9253573855
 H   -0.1652955422   -4.5033811504   -3.9126206604
 H   -1.9338575288   -1.8373968645   -1.1511571750
 H    0.9517115701   -2.5984536577   -0.6326400041