16

 O    0.1994819521    1.3699432532   -0.1203990194
 C    0.0915187581   -0.0105035693   -0.1249085863
 C    0.7605773413   -0.7203729200   -1.3059245766
 C    0.2334418567   -2.1596914369   -1.1651941121
 N   -0.9583217846   -2.1035547872   -0.2682744244
 C   -0.7324599202   -1.6632777345    1.1195854999
 C   -1.2971528238   -0.7452458288    0.0249116649
 C    0.3879169953   -0.6829941078    1.2346680360
 O    1.0244729347   -0.2546398722    2.1644660061
 H    0.5466239351    1.6254283366    0.7457064487
 H    0.4461721177   -0.2440297125   -2.2403845405
 H    1.8499150649   -0.6580545654   -1.2444425071
 H   -0.0958333803   -2.5811230977   -2.1180219378
 H    0.9693940083   -2.8416000094   -0.7316066323
 H   -1.2281465471   -2.1969271727    1.9221130514
 H   -2.2964278681   -0.3354430555   -0.0486222906