21

 C   -0.0122773621    1.4830055066    0.0118380006
 C   -0.0190699621   -0.0388096843   -0.0137682813
 C   -1.3737241093   -0.6487750910   -0.4649401347
 C   -1.7186536596   -1.6217939780    0.6431697955
 C   -0.8092266667   -1.6608284362    1.6207592505
 C    0.3344986313   -0.7274003340    1.3550837911
 C    1.6444161862   -1.2754393788    0.7287057596
 C    1.3592239794   -2.1235564280   -0.4769683159
 C    1.2804762977   -0.6292788059   -0.6105611300
 H    0.9377904675    1.8679270172    0.3987016382
 H   -0.1529581784    1.8958012612   -0.9945565548
 H   -0.8176747306    1.8683181206    0.6471478979
 H   -2.1528474508    0.1168470860   -0.5816592966
 H   -1.2942678970   -1.1523847565   -1.4375200858
 H   -2.6262129333   -2.2177672308    0.6202744036
 H   -0.8707911422   -2.2977352358    2.4972377309
 H    0.5352343505   -0.0282264456    2.1733449862
 H    2.6036710384   -1.3012725291    1.2318303018
 H    2.2343911178   -2.5739860435   -0.9351014933
 H    0.4683934334   -2.7433897510   -0.5201724579
 H    1.9241326099   -0.0880727131   -1.2960202056