18

 C   -0.7549843593    1.3059413482    0.0100046625
 C   -0.0180763290   -0.0235449400    0.0611349161
 C    1.1322412003   -0.2934744364   -0.9638531369
 C    2.0980044677   -0.6866055777    0.2017885124
 N    2.7216284175   -1.9682345194    0.1019201378
 C    0.9798845634   -0.2673195437    1.2115681070
 O    1.7502147282    0.9318335979    1.5487766252
 C    2.8159044864    0.5541394563    0.7562173859
 O    3.8755998884    1.0862245067    0.6632342604
 H   -0.0568378961    2.1430560605    0.0944075800
 H   -1.3020462266    1.4089279500   -0.9328917516
 H   -1.4781839367    1.3883912461    0.8282881099
 H   -0.7301993696   -0.8548475928    0.0361797449
 H    0.9396576884   -1.1380129433   -1.6286406644
 H    1.4557405945    0.5631929255   -1.5592965219
 H    3.1616103945   -2.0782515095   -0.8063086559
 H    3.4484104223   -2.0857975451    0.8013252049
 H    0.6967183756   -0.8142152234    2.1097053536