16

 O    0.0034036030    1.4299634946   -0.0880953957
 C    0.0469981118    0.0263851378   -0.0280715887
 C    1.0107011687   -0.5185785101   -0.9965046966
 N    1.7939602419   -0.9309722557   -1.7403643863
 C    0.0124893918   -0.6578360987    1.3619460203
 C   -1.5024383286   -0.2943409957    1.5539586333
 C   -1.8715676351   -1.7497103287    1.9014922603
 C   -0.7952434764   -1.8812037206    0.8057166509
 C   -1.3413616216   -0.6326223119    0.0296071403
 H    0.8971335371    1.7756863242    0.0151071018
 H    0.7901346114   -0.6781001999    2.1257474850
 H   -1.8880459952    0.6380795191    1.9606319596
 H   -1.6006228113   -2.1016306422    2.9014279463
 H   -2.8821729744   -2.0769024829    1.6391939737
 H   -0.3678149889   -2.7751094337    0.3531881658
 H   -2.1155421544   -0.6182612259   -0.7365765700