22

 N   -0.0016831306   -1.2114349643   -0.1327400806
 C   -0.0146721622   -0.0606702885   -0.0271977536
 C   -0.0059690170    1.3947852364    0.1035389231
 C    1.4101381881    1.9952392409   -0.0018876180
 C    1.4019416375    3.5210457550    0.1404976477
 C    2.7896786487    4.1376003643    0.0246787729
 C    3.5164345194    4.1349635238   -1.3532336053
 C    4.0414072417    5.5606293300   -1.0343885128
 C    2.9293152379    5.6864668976    0.0412857512
 H   -0.6551677369    1.8162991841   -0.6730864527
 H   -0.4593145589    1.6591313072    1.0663316909
 H    2.0452652178    1.5498572690    0.7723446384
 H    1.8474117073    1.7095567183   -0.9649989413
 H    0.7485359908    3.9571487062   -0.6286700639
 H    0.9602523874    3.7951162633    1.1092115270
 H    3.4482419392    3.7017843416    0.7864053213
 H    4.2506692457    3.3493556626   -1.5474006847
 H    2.7961587547    4.1479506329   -2.1789183388
 H    5.0379490634    5.5328016145   -0.5846561861
 H    4.0490583991    6.2920635617   -1.8455034464
 H    2.0319176480    6.1674886281   -0.3626147522
 H    3.1813812189    6.1661316454    0.9903607440