15

 C   -0.2671189229    1.2721232466   -1.4280320101
 C    0.2536113376   -0.0591767890   -0.9178725444
 O    1.6383147221   -0.3246297609   -1.2589579135
 C    2.0513298081   -0.5467004240    0.1137442636
 C    3.2050822638    0.3304967096    0.5644800469
 C    0.6318917443   -0.1720657765    0.5669559501
 O    0.0824407107    0.0100982266    1.6105283233
 H    0.3615639837    2.0977355357   -1.0837654778
 H   -0.2806296623    1.2791881378   -2.5217750387
 H   -1.2875602934    1.4335086043   -1.0671541079
 H   -0.3980104468   -0.8834838602   -1.2440888344
 H    2.2768917720   -1.6088908964    0.2908977833
 H    2.9750133762    1.3889932713    0.4159849448
 H    3.4066341642    0.1604758896    1.6265762654
 H    4.1083680726    0.0889498854   -0.0031785107