15

 O   -0.0257624423    1.4580531490   -0.0185414768
 C   -0.0413399465    0.0696685334    0.0172326129
 C    0.1885763519   -0.6512739706    1.3957240870
 N   -1.0989203688   -1.4126825724    1.2855245600
 C   -2.1441319877   -0.3787914696    1.2565298199
 C   -1.4036331760   -0.6353295152    0.0077515150
 C    0.8856647697   -0.4942206685   -1.0342677534
 O    1.5291804658    0.2220099425   -1.7629294859
 H    0.5975910729    1.7002778101   -0.7234267217
 H    1.0427052171   -1.3314881209    1.4237405297
 H    0.2372352834    0.0370737431    2.2440750912
 H   -3.1475797325   -0.7880240053    1.3175902480
 H   -1.9906226348    0.5508649953    1.7988435331
 H   -1.8632367105   -1.1044088364   -0.8566820483
 H    0.9454174882   -1.5993056543   -1.0918901007