20

 C   -0.0465614071    1.5070110996    0.0453351514
 C   -0.0021213603   -0.0067366252    0.0300952016
 C    1.3388751051   -0.7234092739   -0.1864900753
 C    0.6494024355   -0.7653212174    1.1268304418
 N    1.1681350236   -0.2136837961    2.4482513438
 C   -0.1798750658   -0.6873062921    3.0208773332
 C    0.2406150274   -1.8635613714    2.0954728567
 O   -0.4284974504   -3.0170853766    1.7344645244
 C    1.6565912441   -1.6511602065    2.7013404058
 H    0.8082608132    1.9125069162    0.5937043919
 H   -0.0269397339    1.9123916108   -0.9721682089
 H   -0.9564547086    1.8740716846    0.5328618008
 H   -0.8606913201   -0.4907812107   -0.4308310418
 H    1.3534556855   -1.6197061471   -0.7985029724
 H    2.2211820630   -0.0961846246   -0.2755354407
 H   -0.1533821947   -0.8443508456    4.1030839669
 H   -1.0258517109   -0.0693159321    2.7147062137
 H   -0.5682692392   -3.5565566707    2.5203806935
 H    2.5211292892   -1.9298820408    2.0962438295
 H    1.8049749344   -1.8709084906    3.7625871543