20

 C    0.1220562176    1.6234561674    0.0331552483
 C   -0.1349612557    0.1144057203   -0.0458063004
 C    0.6130549680   -0.5466182968   -1.1942990726
 N    2.0823036074   -0.6308864527   -1.0378371655
 C    2.1733305744   -1.9747888606   -1.2875123565
 O    3.0937589336   -2.7321843197   -1.4585938820
 C    0.6246984425   -2.1088256248   -1.3498486391
 C   -0.0222478814   -2.9607763783   -0.2705887012
 O    0.1827827074   -2.4760469287   -2.6444144629
 H    1.1823133533    1.8365221899    0.2083216267
 H   -0.1714717886    2.1256463060   -0.8951626938
 H   -0.4432839198    2.0774075355    0.8520959886
 H    0.1519577158   -0.3576002874    0.9001237848
 H   -1.2077105895   -0.0699823747   -0.1834254772
 H    0.3252840018   -0.0942548896   -2.1504759956
 H    2.7931595954    0.0840090060   -1.1046907761
 H    0.2946815756   -2.6626508917    0.7325465218
 H   -1.1124358741   -2.8945290625   -0.3346848158
 H    0.2671012955   -4.0072375281   -0.4125933921
 H    0.6516661508   -3.2840129094   -2.8858927196