21

 O   -0.1174136973    1.4352818739   -0.1349307960
 C   -0.0078160644    0.0423471446    0.1417307521
 C   -1.4000710259   -0.5477763820    0.0320634786
 C   -2.0295132462   -0.6421236480   -1.3942787063
 C   -1.2457372185   -1.9765693491   -1.5717036619
 C   -1.5165007135   -2.1035083254   -0.0441759890
 C   -3.0413567550   -2.2889316256   -0.0284972472
 O   -3.5360526791   -2.0760587821    1.2837193450
 C   -3.4371353148   -1.1756596702   -1.0640724730
 H    0.7497856231    1.8330881702   -0.0148802766
 H    0.6988713922   -0.4378275274   -0.5510184373
 H    0.3733797880   -0.1285145261    1.1616422799
 H   -2.0323992645   -0.0758390585    0.7889137742
 H   -1.9501543308    0.1802874550   -2.1044679136
 H   -1.6791396943   -2.7363297348   -2.2304933859
 H   -0.1922717812   -1.8452418365   -1.8167752814
 H   -0.9424128516   -2.7673772153    0.6035774012
 H   -3.3212786659   -3.2922990276   -0.3802863746
 H   -4.4972235753   -2.0879681191    1.2455916276
 H   -4.0763103371   -0.4218532769   -0.5937248456
 H   -3.9549654078   -1.5752444789   -1.9414271503