17

 C   -0.1024593750    1.5553920050    0.0915159014
 C    1.4404476690    1.4019196539    0.0243660838
 O    1.3003506001    0.1488384529    0.7486902106
 C    0.0219689279    0.0208955394    0.0636863530
 C    0.3560192704   -0.4467862892   -1.4161386201
 O   -0.1184379206    0.5008646494   -2.3800542273
 C    0.9515371496    1.4540678177   -2.5276864413
 C    1.9290056065    1.0085481954   -1.4265294612
 O    1.7540970569   -0.4107435483   -1.5402082256
 H   -0.4079000372    1.9088922502    1.0775778716
 H   -0.6596286520    2.0612557596   -0.6926580644
 H    2.0961357910    2.1175719962    0.5240608387
 H   -0.6818181235   -0.6287776462    0.5868362616
 H   -0.0214964196   -1.4381323024   -1.6695674227
 H    1.4031203831    1.3494924010   -3.5200772655
 H    0.5677879000    2.4716322511   -2.4089918469
 H    2.9754933434    1.2520425242   -1.6076615655