15

 C   -0.0339403382    1.4439566574    0.0279310617
 N   -0.0078572333   -0.0099898024    0.0750315633
 N   -0.0412567661   -0.6408239445   -1.1410073074
 N   -0.0224581695   -1.8916395868   -1.2153779075
 C    0.0345067175   -2.7420724238   -0.0564800243
 N    0.0510019264   -4.0143815566   -0.1895929690
 C    0.0699485423   -2.0713732499    1.2217083306
 C    0.0475923849   -0.7229100613    1.2464537103
 O    0.0741990122    0.0681494774    2.3380108115
 H    0.8663788108    1.8655145817    0.4828183536
 H   -0.0794745038    1.7166417962   -1.0257841909
 H   -0.9097496846    1.8356571212    0.5519886361
 H    0.0182564340   -4.2387830481   -1.1861996751
 H    0.1135157511   -2.6561418323    2.1320364930
 H    0.1126245363   -0.4897370481    3.1242146641