21

 C   -0.3352306713    1.5617445552    0.1882005691
 C   -0.0666651733    0.0633994360    0.1187389686
 O   -1.2131090744   -0.6620588743    0.5420476566
 C    0.3855274200   -0.5425785350   -1.2169904745
 C    1.7302677466   -0.0210277060   -1.6315170156
 C    1.6610867780   -1.0891721903   -0.5744374515
 C    1.2474142466   -0.5159973348    0.7864818344
 C    2.2066132118    0.3840594040    1.5405812526
 O    1.5380179988    0.8135212567    2.7247780058
 H    0.4841098359    2.1500867181   -0.2345949087
 H   -1.2483642131    1.7968588953   -0.3670433503
 H   -0.4595930339    1.8756353589    1.2297073701
 H   -1.4011021642   -0.3965386614    1.4495001165
 H   -0.2946519843   -1.0285988277   -1.9052213444
 H    2.0716809230   -0.3631625618   -2.6035446789
 H    2.0414324504    0.9934450167   -1.3981329628
 H    2.1271745403   -2.0564017006   -0.7190967644
 H    0.9277169942   -1.3191513454    1.4564733246
 H    3.1233731200   -0.1776759213    1.7835527537
 H    2.5075674397    1.2448339241    0.9252914370
 H    2.1105374194    1.4314607936    3.1885401621