22

 C   -0.2620363011    1.5178807691    0.1544588200
 C   -0.0207260176    0.0185086949    0.0486328576
 C   -1.2613879662   -0.7387663606   -0.4028471394
 O    1.0965976573   -0.2577123976   -0.8521298559
 C    1.9213577341   -0.7401443238    0.2233940169
 C    0.7655649465   -0.6323728436    1.2324156730
 N    1.0276498200    0.1975568630    2.3885057149
 C    0.1405350409    0.0178754068    3.5358049550
 C    1.5362403588   -0.4949403674    3.5714246256
 H    0.6301760071    2.0325998867    0.5142190218
 H   -0.5270705901    1.9118249655   -0.8319878906
 H   -1.0838373400    1.7369539165    0.8442534462
 H   -1.5980366362   -0.3693697002   -1.3769241731
 H   -1.0498503943   -1.8075984391   -0.4997664927
 H   -2.0798054746   -0.6076150374    0.3137407002
 H    2.3123592666   -1.7452216717    0.0263721405
 H    2.7551502748   -0.0624566037    0.4466246127
 H    0.3443249164   -1.6122667048    1.5115512650
 H   -0.1283884976    0.9244514148    4.0696915523
 H   -0.6580664958   -0.7179438359    3.4539643682
 H    1.6710092857   -1.5738734770    3.5130596171
 H    2.3045334455    0.0307340655    4.1305345848