17

 C   -0.1655964283    1.3553025619    0.0780622143
 C    1.4067585776    1.3591822565    0.0207260647
 C    2.3241541376    0.3174448167    0.8534380708
 O    1.7448802177   -0.6609269345    1.7338443814
 C    1.4418159473   -1.5508617327    0.5830821338
 C    0.0165786935   -1.1666637718    0.2670862843
 C    0.0334277710   -0.0537266094   -0.4835908063
 C    1.3876591370    0.2617978159   -1.0963706211
 C    2.3431003257   -0.6700181523   -0.3373889992
 H   -0.6672322523    1.4250193711    1.0450086575
 H   -0.5587983441    2.1124028253   -0.6094777271
 H    1.8933213555    2.3299410581   -0.1076075851
 H    3.2088983293    0.7821692091    1.2940060568
 H    1.6965720273   -2.5832173341    0.8285889180
 H   -0.7435186768   -1.3726219102    1.0147216825
 H    1.4673082123    0.4874833041   -2.1591160216
 H    3.2531492599   -1.0821035038   -0.7660559036