14

 O   -0.0178717490    0.3637099977   -0.1750353331
 C    0.0639855619    1.5624385941   -0.1438314662
 N    1.1028775180    2.2507352865    0.4908347184
 C    2.4827649269    1.9020482914    0.3793821647
 C    1.9636701839    3.2547923254   -0.0987878758
 C    1.9442860234    3.4727941805   -1.5749156152
 O    1.4431124170    2.7172593863   -2.3770395203
 C    2.6235029189    4.7494542793   -2.0887124740
 O    3.0947354575    5.5856962459   -1.3649361763
 H   -0.7168929307    2.2484112807   -0.5145761490
 H    3.0597254765    1.8733084204    1.2988342666
 H    2.7508959402    1.1766154928   -0.3845816239
 H    2.1728334422    4.1338167028    0.5014472638
 H    2.6251972634    4.8174555562   -3.1958244596