23

 C    0.1983777930    1.7102767386   -1.2679692488
 O    0.1075655394    0.3222484442   -1.4725503648
 C    0.5672537337   -0.4281406765   -0.3686284895
 C    0.3953341551   -1.9103556682   -0.6422828073
 C    0.8936405855   -2.7872534885    0.4789132172
 O    0.1511955028   -2.5149667789    1.6530267394
 C    0.5945149724   -3.2548426837    2.7635170486
 C   -0.8046855066   -2.3730265657   -1.4275996208
 C    0.5705443443   -2.4211544384   -2.0508118687
 H   -0.4002880608    2.0356326334   -0.4025460885
 H    1.2391039553    2.0321675161   -1.1030472496
 H   -0.1838425114    2.2002621786   -2.1669324788
 H    1.6334677604   -0.2060925037   -0.1771568692
 H    0.0105966990   -0.1552639999    0.5413429275
 H    0.7925699106   -3.8493869739    0.1989652143
 H    1.9674674679   -2.6024031981    0.6651453913
 H   -0.0295110790   -2.9749571344    3.6158774480
 H    0.5006520450   -4.3401734819    2.5967207828
 H    1.6473877025   -3.0387741910    3.0074984071
 H   -1.2745704881   -3.3053723957   -1.1334998427
 H   -1.4834484558   -1.6096710951   -1.7874455454
 H    0.7952472529   -1.6873200672   -2.8148967163
 H    1.0432568721   -3.3880471900   -2.1905988057