13

 C   -0.0281192672    1.5074473860   -0.0233389789
 C   -0.0101155689    0.0137386529    0.0221985947
 N   -0.0294363088   -0.7193129750   -1.0912961082
 N   -0.0040568237   -1.9716697307   -0.6332894624
 N    0.0307214471   -2.1353332992    0.6667843902
 C    0.0278898253   -0.8734273098    1.1293255926
 C    0.0602534655   -0.5481164136    2.5616307556
 O    0.0924231106   -1.3518338273    3.4611883934
 H    0.8641131582    1.9319704547    0.4478363096
 H   -0.0625992709    1.8421775282   -1.0616196361
 H   -0.8999394711    1.9123805551    0.5002942248
 H   -0.0113048917   -2.7590951454   -1.2636229008
 H    0.0508232455    0.5457958440    2.7651193554