18

 C    0.1143842239    1.5492863567   -0.1470317405
 C   -0.0410425078    0.0304362998    0.0441917935
 C    0.5509369444   -0.4666974840    1.3121843970
 C    0.0499005707   -1.0688227088    2.3997908946
 N    1.1120538573   -1.2912169267    3.2809751063
 C    1.0647885604   -1.9178997228    4.5823948606
 C    2.2746141544   -0.8142232397    2.7182457704
 O    3.3950048518   -0.8175856812    3.1580059090
 O    1.9157554980   -0.3001081996    1.4870181894
 H    1.1692735363    1.8348112286   -0.1264185517
 H   -0.3062936324    1.8600784967   -1.1076008300
 H   -0.4001042169    2.0978263493    0.6476441116
 H   -1.1000578176   -0.2485435492    0.0358988223
 H    0.4285349686   -0.4895808216   -0.8011627280
 H   -0.9595162185   -1.3633776143    2.6314973519
 H    0.7056064098   -2.9502098624    4.5117463833
 H    2.0821176992   -1.9187001804    4.9765557049
 H    0.4145968384   -1.3617134706    5.2661765954