17

 C    0.1060530468    1.4986827129    0.0453993717
 C    0.0511831986    0.0453909388    0.0312618870
 C    0.0130280732   -1.1575834639    0.0302064977
 C   -0.0177100543   -2.5959045248   -0.0061231052
 N   -0.5357922940   -3.3049084888    1.2013331404
 C   -1.3174766907   -3.3799732822   -0.0262519999
 C   -2.6536908858   -2.6860375434   -0.0439005814
 C    1.0948775205   -3.2166246069   -0.6977908612
 N    1.9802739956   -3.7319421527   -1.2349879863
 H    1.1072909264    1.8535058078   -0.2210899333
 H   -0.6037455658    1.9319843902   -0.6673235808
 H   -0.1335687076    1.8909756599    1.0394762331
 H    0.0042518124   -4.1545945893    1.3502892847
 H   -1.2641060800   -4.3077710215   -0.5935525132
 H   -2.6053745747   -1.7399062628    0.4980866558
 H   -2.9704770414   -2.4885227195   -1.0725741807
 H   -3.4088501892   -3.3204362140    0.4312330316