21

 C   -0.0311991885    1.5500460473    0.2729127350
 N   -0.0176883746    0.1721273213   -0.2185813498
 C   -1.3047345120   -0.5115011076   -0.1002690958
 C   -1.2306706005   -1.9501536456   -0.6570108621
 C   -0.8132326014   -2.0142030758   -2.1346628705
 C   -0.9453518946   -3.4280819141   -2.6974985216
 O   -1.5247969266   -1.0626527766   -2.9255286824
 C   -1.7188001044   -0.5696372327    1.3122324983
 N   -2.0696946885   -0.6285076129    2.4115826731
 H    0.9379521348    2.0094136686    0.0621791586
 H   -0.8189148195    2.1780973713   -0.1776791813
 H   -0.1767018672    1.5533395098    1.3569586930
 H    0.2156622435    0.1868598841   -1.2055413946
 H   -2.1083596785    0.0215479626   -0.6392548236
 H   -0.5236189846   -2.5299726863   -0.0553417362
 H   -2.2179327870   -2.4135072756   -0.5352807972
 H    0.2351356067   -1.7048377601   -2.2210063828
 H   -0.6300415434   -3.4500358966   -3.7438582077
 H   -0.3318685811   -4.1371749722   -2.1330262812
 H   -1.9858700524   -3.7720208249   -2.6428564446
 H   -2.4403703401   -1.3567584640   -2.9931856066