17

 O   -0.0477698764    1.4221451568    0.1014717600
 C    0.0196366669    0.0041666725    0.0095959506
 C   -1.4322699576   -0.5288135486   -0.1135311859
 C   -1.2947497535   -1.9073131626   -0.7691003807
 C   -0.0350149659   -1.8087888942   -1.6390092982
 O    0.3269119203   -2.6169107904   -2.4520632186
 C    0.6830028530   -0.4994302436   -1.2966287012
 C    0.6960251211   -0.5622346201    1.1828733173
 C    1.2750287951   -1.0098933485    2.1369847013
 H    0.8143354627    1.7448480705    0.3853856267
 H   -1.9403188712   -0.5402064856    0.8514777249
 H   -1.9654122310    0.1666538679   -0.7699423814
 H   -1.1148404036   -2.6908090216   -0.0226681248
 H   -2.1563308506   -2.2203401508   -1.3629437926
 H    0.4593127358    0.2290654841   -2.0862819676
 H    1.7651849120   -0.6302745206   -1.2472613895
 H    1.7787485827   -1.4058715452    2.9844986596