20

 C   -0.0892154636    1.5439286047   -0.0709001941
 C    0.0278869222    0.0303421883    0.0346985245
 O    0.8699853372   -0.4796911278   -1.0255791140
 C    1.8585706773   -1.1873493850   -0.3286401425
 C    1.2621787235   -1.9529265705    0.8831751676
 N    2.5774609202   -1.7717363387    1.5921721211
 C    2.2984287495   -0.4346441239    0.9576346859
 C    0.7522733763   -0.5109044853    1.2710752594
 C    0.1882526198   -0.2056310417    2.6367734410
 H    0.8829271353    2.0244231976    0.0776669479
 H   -0.4585060936    1.8223087949   -1.0618045523
 H   -0.7895008620    1.9341022640    0.6749498665
 H   -0.9680486388   -0.4261889138   -0.0645743206
 H    2.5867259170   -1.6515848559   -0.9889653814
 H    0.7089135344   -2.8939541454    0.8958400561
 H    2.4177356344   -1.7123757717    2.6009680518
 H    2.9755188546    0.4153985496    1.0577159492
 H    0.1694134099    0.8721772740    2.8288473640
 H   -0.8380556253   -0.5783622946    2.7308666470
 H    0.7807578517   -0.6699632589    3.4329215331