14

 O    0.0010819829   -0.0478932712   -0.2072387123
 C    0.0060588488    1.1554174913   -0.0791484386
 N   -1.0373947861    2.0564000737   -0.0113707526
 N   -0.6651089757    3.3994487905    0.1739413188
 C    0.6169795694    3.2949952039    0.2019977084
 O    1.5835842920    4.2002707861    0.4026920630
 C    2.8437971649    3.5106530350    0.1789294926
 C    2.5332184680    1.9830264367    0.2213087269
 N    1.1019726628    2.0320363881    0.0320260166
 H   -2.0109983453    1.8182302684   -0.0702008665
 H    3.2265889365    3.8123010005   -0.8005829002
 H    3.5392813214    3.8304383219    0.9551874258
 H    3.0409070075    1.4385496074   -0.5776515851
 H    2.7975707629    1.5271826576    1.1813822831