16

 C    0.0045591177    1.6200535827   -0.2451355058
 N   -0.1328244615    0.2029376339    0.0092953625
 C    0.5233057176   -0.5829962804   -0.7268189230
 N    0.5005562387   -1.9705694610   -0.6113379514
 C   -0.1888296638   -2.7609657970    0.2659012036
 O   -0.9443306902   -2.4255832532    1.1511559652
 C    0.1268876613   -4.2516110923   -0.0185295001
 N   -0.5328379758   -5.0632200349    0.8242848988
 O    0.8881208897   -4.5894044882   -0.9105668043
 H    0.6865740705    1.8627058704   -1.0771109820
 H   -0.9803299051    2.0466667394   -0.4664150173
 H    0.3687999676    2.1182504657    0.6604548368
 H    1.1868206827   -0.2588153885   -1.5421383095
 H    1.0651347020   -2.5154369321   -1.2540901286
 H   -1.1317637471   -4.6398927278    1.5164000717
 H   -0.4266638844   -6.0609969768    0.7603139434