15

 N   -0.1301473050    1.1928851198    0.4317927198
 C    0.0023295771   -0.0515594394   -0.0924393394
 O    1.0313997412   -0.5201713443   -0.5387848269
 C   -1.2789238996   -0.8419659510   -0.0797143401
 C   -2.1228306295   -1.3518717913   -1.2778347827
 C   -2.9000474288   -1.5871310348    0.0379685905
 C   -1.6152990223   -2.1439935567    0.6940032338
 O   -2.5090076121   -0.2234888754    0.4851475490
 H    0.6732010403    1.7981067538    0.4673875437
 H   -1.0189138454    1.5076364235    0.7831979795
 H   -2.5226424196   -0.5698572289   -1.9237307931
 H   -1.7508392465   -2.2199169583   -1.8243926880
 H   -3.9393608017   -1.8758623482    0.1894690034
 H   -1.2005658123   -3.0788809796    0.3137993270
 H   -1.5695473058   -2.0577267291    1.7798365337