23

 C    0.1350768245    1.4882046159   -0.1252729439
 C    0.0129587621   -0.0383789540   -0.0954787524
 C   -1.4241296986   -0.5628323764    0.0886822258
 C   -2.2824883138   -0.3385448546   -1.1685950096
 C   -3.7869276342   -0.4546716566   -0.9458383397
 O   -4.4242792746   -0.1638841010   -2.1814720492
 C   -1.4057612722   -2.0657138596    0.4778813392
 C   -0.7905487697   -2.3314021710    1.7728704892
 C   -0.2913816727   -2.5324127187    2.8482817765
 H    1.1814157876    1.7912788079   -0.2308203647
 H   -0.4183225022    1.9350431853   -0.9571518631
 H   -0.2455917241    1.9303330999    0.8022812282
 H    0.4292556371   -0.4625252802   -1.0199960351
 H    0.6283098452   -0.4249430796    0.7243689832
 H   -1.8780560488   -0.0143619580    0.9261772279
 H   -2.0964848735    0.6617408629   -1.5725945077
 H   -1.9861861949   -1.0469840004   -1.9532908077
 H   -4.0568291119   -1.4634036305   -0.5959962652
 H   -4.0973096515    0.2543447254   -0.1604190582
 H   -5.3739710368   -0.2493140937   -2.0575215558
 H   -2.4277646986   -2.4621014673    0.4878977210
 H   -0.8724866774   -2.6260743008   -0.3026468526
 H    0.1501633089   -2.7209017349    3.7951776338