21

 C   -0.0104774410    1.4977746824   -0.2679473399
 C    0.0516460790   -0.0105158106   -0.0521252609
 O    0.9156084574   -0.3738529342    1.0253763628
 C   -1.3318967041   -0.6113955829    0.1869682859
 O   -2.2316600853   -0.3912402995   -0.9271712523
 C   -2.4528090916   -1.8110173974   -1.1040591297
 C   -1.4958547980   -2.1232774025    0.0406361810
 C   -0.4495494432   -3.1917106438    0.1334858990
 C   -1.6090924841   -3.1664559210    1.1054916109
 H    0.9875645655    1.8991031488   -0.4636520024
 H   -0.6635692315    1.7317467605   -1.1129658673
 H   -0.4165471508    2.0006330413    0.6194881024
 H    0.4860307024   -0.4904823215   -0.9361405262
 H    0.6376158143    0.1230969251    1.8031666342
 H   -1.7511156499   -0.1959872274    1.1193725899
 H   -3.5037219790   -2.0819524491   -0.9372524132
 H   -2.1480663652   -2.1501422381   -2.1025985767
 H   -0.4414250489   -3.9622318251   -0.6313516342
 H    0.5267714408   -2.9018909712    0.5040159733
 H   -1.4069368731   -2.8709835747    2.1303488451
 H   -2.3854570436   -3.9183147592    1.0017911183