25

 C   -0.3516572464    1.3902718133    0.0987168301
 C   -0.0147463243   -0.0972511927    0.0889247358
 C    1.1087938083   -0.4797121085   -0.9195192267
 C    2.1076095378   -0.5937129989    0.2616794090
 C    0.9132273758   -0.6259608113    1.2518962169
 C    1.0050159490    0.1543386743    2.5725414032
 C   -0.0723359741   -0.4531988605    3.5142444822
 C   -0.5696140711   -1.7409905176    2.8023444983
 C    0.4932062484   -2.0270683738    1.7288663469
 H    0.5477944747    2.0109502492    0.1811845313
 H   -0.8579633602    1.6720306679   -0.8314173780
 H   -1.0149549071    1.6533138914    0.9300064448
 H   -0.9418079750   -0.6706120709   -0.0234676050
 H    0.9284603814   -1.4395146168   -1.4103980576
 H    1.3361473892    0.2616094724   -1.6907008026
 H    2.7759037394   -1.4600853580    0.2744402081
 H    2.7174251335    0.3075729738    0.3785296695
 H    2.0056115906    0.0014622518    2.9954280838
 H    0.8895305184    1.2328721855    2.4367850814
 H    0.3540696265   -0.6812761934    4.4956142913
 H   -0.8970468382    0.2435221609    3.6901516644
 H   -0.7147254961   -2.5785669522    3.4902955988
 H   -1.5370942149   -1.5554191550    2.3222531927
 H    0.1291528440   -2.6684828869    0.9195372625
 H    1.3596640407   -2.5312816442    2.1782258188