21

 C   -0.2458466599    1.4796728667   -0.0509747094
 C    0.1682726060    0.0019964324   -0.0159824174
 C    0.8368342434   -0.4597753345   -1.2783510433
 C    0.0851258175   -0.8610696951   -2.5542349826
 C    0.9785782710   -1.8579689860   -1.8428274267
 C    2.1414492203   -1.3060472392   -2.7180941281
 C    1.1359888557   -0.5033369807   -3.6316766187
 C    1.7990229162    0.8269474680   -3.1976026155
 C    2.1641592104    0.0467154423   -1.9101375790
 H    0.6211455551    2.1282545467   -0.2156120178
 H   -0.9597676963    1.6696970683   -0.8590436867
 H   -0.7124948389    1.7816195628    0.8918342863
 H    0.8390911874   -0.1665470223    0.8375108966
 H   -0.7144603563   -0.6247685566    0.1676070336
 H   -0.9955254437   -0.8414343646   -2.6200599401
 H    0.7608979246   -2.8258999161   -1.4098940698
 H    3.0239323913   -1.8302403351   -3.0763358126
 H    0.9290247771   -0.7515398487   -4.6722847989
 H    2.6871933257    1.0485250756   -3.7991002111
 H    1.1750274555    1.7225215627   -3.1129458582
 H    2.9753014281    0.3441378835   -1.2449543005