19

 C   -0.1260946063    1.7441592494    0.2327248933
 C   -0.1858314330    0.2353870238    0.1422098402
 C   -1.4426691430   -0.3710613319   -0.4577154763
 C   -1.6455345630   -0.0064407322   -1.9347583145
 O   -2.8035066573   -0.6154706902   -2.4816129089
 O    1.0308462060   -0.3976607496   -0.2831103079
 C    0.6125849292   -0.5990435140    1.0787980629
 C    1.4376954779   -0.0477011066    2.1195981316
 C    2.1159155688    0.3842880829    3.0135318836
 H    0.7708393338    2.0646358329    0.7646836018
 H   -0.1102033941    2.1883217847   -0.7672823836
 H   -1.0038008580    2.1318043645    0.7601602801
 H   -1.3802820747   -1.4630928130   -0.3744907609
 H   -2.3216892392   -0.0511114966    0.1139571722
 H   -1.8029638502    1.0706740293   -2.0465489053
 H   -0.7408046715   -0.2673623597   -2.5035981307
 H   -2.6544388734   -1.5661534092   -2.5021647858
 H    0.2467695962   -1.6060255037    1.2815650657
 H    2.7196537620    0.7689178992    3.7982601325