20

 C   -0.1047714420    1.3639548589    0.0074414089
 O   -0.0469167823   -0.0457993636    0.0147837609
 C    0.6245597050   -0.5948582861    1.0630969626
 C    1.2713169591    0.0253229857    2.1125227205
 N    1.8195433968   -0.9706736473    2.8980967763
 C    2.4726004561   -0.7570154819    4.1681385991
 C    1.5071725953   -2.1890897228    2.3555257989
 C    0.7688628463   -2.0057591204    1.2070223497
 C    0.2359033583   -3.0482909893    0.2747493979
 H    0.9009878955    1.8052670669   -0.0425816432
 H   -0.6711997116    1.6553364439   -0.8790963138
 H   -0.6108853810    1.7480966115    0.9047014167
 H    1.3947034038    1.0635194422    2.3688231030
 H    1.7548217155   -0.5677908697    4.9766201491
 H    3.0587977036   -1.6421768168    4.4257735022
 H    3.1538684051    0.0969351946    4.1036996804
 H    1.8362300804   -3.1013737120    2.8295762922
 H   -0.8548749987   -2.9897819561    0.1825130429
 H    0.6425563492   -2.9353601841   -0.7371359932
 H    0.4882385657   -4.0531824437    0.6258765385