17

 N   -0.0128434268   -1.1787699587    0.0475601950
 C   -0.0167286847   -0.0219544321    0.0194525630
 C   -0.0173922390    1.4192698506   -0.0231946807
 C   -1.1448924906    2.1843793140    0.7386476239
 C   -1.2164156238    3.2378407313   -0.3969198410
 C   -0.0100628683    4.1975816531   -0.3931332349
 N    0.8902232247    3.1651264252   -1.0175256078
 C    1.3385145972    2.1760485994    0.0127197430
 C   -0.3357146783    2.3064459438   -1.2864889829
 H   -2.0537754906    1.5792703803    0.7697982802
 H   -0.9094906395    2.5282376675    1.7499080287
 H   -2.1994208716    3.6203248994   -0.6691335429
 H   -0.1322467273    5.0359718197   -1.0854845960
 H    0.3345672049    4.5859593595    0.5715774116
 H    1.6422969674    2.6043071454    0.9733985522
 H    2.1569396004    1.5691841130   -0.3839314725
 H   -0.5413751442    1.9376412684   -2.2896106790