17

 O   -0.0891027250    1.3386196670    0.2091709218
 C   -0.0031793964   -0.0010939254   -0.0123874326
 C    0.0790251585   -0.7779823216   -1.1382492721
 C    0.2170739568   -0.7440867744   -2.6337732147
 C   -0.0915855483   -2.2321825457   -2.9830955934
 N    0.3057486267   -3.0066047626   -1.7813042451
 C    0.1268199638   -2.1299180496   -0.6932616189
 C    0.0598019345   -2.1671088335    0.6713654512
 N   -0.0062123639   -0.8233824084    1.0786853596
 H   -0.0713063063    1.7837854586   -0.6427857703
 H   -0.4702496139   -0.0704365663   -3.1564430279
 H    1.2353480759   -0.4804222665   -2.9513723652
 H   -1.1682326635   -2.3354609068   -3.1886644701
 H    0.4570117191   -2.5798015169   -3.8632753927
 H   -0.1760246613   -3.8929784959   -1.7036829825
 H    0.0682676575   -2.9646169043    1.3934074827
 H   -0.1851563442   -0.5023521480    2.0134973904