16

 C    0.0421985767    1.3776659127    0.0419202296
 O    0.0535696110   -0.0602654869    0.0383818914
 C    0.6491469471   -0.6377032789    1.0842670405
 O    1.1639817886   -0.0417094097    2.0025490493
 C    0.5810670216   -2.1532054853    1.0268877460
 O    1.3839325097   -2.6993875613    2.0511917175
 C   -0.8679379478   -2.6527171138    1.2007438714
 O   -0.8804155513   -4.0552293448    1.3092360742
 H    1.0633115961    1.7657056436    0.0420157783
 H   -0.4796692039    1.6699161396   -0.8684688973
 H   -0.4814489183    1.7531513592    0.9240260789
 H    0.9558547046   -2.4998500069    0.0557243103
 H    1.5979359164   -1.9604912583    2.6415601087
 H   -1.3036931044   -2.1707632092    2.0925483340
 H   -1.4719967768   -2.3771377384    0.3318314174
 H   -0.2032020492   -4.2693472616    1.9643224098