17

 O   -0.0240780264    1.3457787540    0.0262806767
 C    0.0614154871   -0.0427893815   -0.0294406163
 C    1.0343127471   -0.6643841436   -1.0296950153
 O    0.3854419112   -1.8184735583   -1.5599715632
 C   -0.7219278649   -2.1593697971   -0.7416077992
 O   -0.3458331954   -3.0357211531    0.3000031497
 C    0.1747635034   -2.2635015269    1.3850756452
 C   -0.3580438369   -0.8487533349    1.1900042980
 C   -1.1876773078   -0.8624753878   -0.0717570802
 H    0.6744347851    1.6697398778    0.6049263027
 H    1.2209535031    0.0491641303   -1.8396783796
 H    1.9979688184   -0.9451873336   -0.5815847625
 H   -1.4441023327   -2.6849835431   -1.3660886102
 H   -0.1865430589   -2.7009223265    2.3217667060
 H    1.2729456836   -2.3087056833    1.3900358031
 H   -0.6894130210   -0.2796618238    2.0510375540
 H   -2.1882155149   -0.4649373287   -0.1697390390