16

 N   -0.0182349365   -1.1863061054    0.0555773981
 C   -0.0129627245   -0.0318572237    0.0013293638
 C   -0.0019654864    1.4305738557   -0.0708214159
 C   -0.7321858234    2.1225081590    1.1223496226
 C    0.1766396264    3.2959703962    1.4993912449
 C   -0.3078700548    4.6380050376    1.8645321661
 O    0.1753184415    3.7349215908    2.8605549676
 C    1.4762612136    3.0473643151    0.8238292536
 C    1.4005963458    2.0248558294   -0.0235778803
 H   -0.4833228185    1.7035431454   -1.0196798083
 H   -1.7476355879    2.4255203667    0.8624302867
 H   -0.7913752943    1.4421256699    1.9754208846
 H    0.3160652330    5.5123456362    1.6811106727
 H   -1.3804214893    4.8297683301    1.8838312260
 H    2.3503741090    3.6578742074    1.0144782549
 H    2.1973763066    1.6455119297   -0.6506055270