18

 C   -0.2477796084    1.5195363409   -0.0773309445
 C    0.0957810633    0.0572163462    0.0436230209
 O    1.4812700433   -0.3405619777   -0.0457405497
 C    0.7792415033   -0.5760883457    1.1846884262
 C    1.3402301021    0.1479427912    2.3760699826
 O    1.9933451111    1.3464358738    2.0692969666
 C    0.6096586234    0.1233834775    3.6827134702
 C    1.8905331005   -0.6716363863    3.5235803331
 H   -0.1266837058    1.8500967836   -1.1146268899
 H   -1.2979261469    1.6700157331    0.1964378198
 H    0.3743734874    2.1337574409    0.5726018436
 H   -0.5534084904   -0.6026996345   -0.5365331845
 H    0.5538363572   -1.6267869882    1.3776780233
 H    2.4859546729    1.1694517577    1.2558310490
 H    0.6540310352    1.0333009585    4.2701938945
 H   -0.3327521874   -0.4107613191    3.7422648797
 H    1.8275178605   -1.7540176274    3.4761827409
 H    2.7798425785   -0.2815747745    4.0043410583