18

 O    0.3526885423    0.9939689998   -0.6355999927
 C    0.1108631583   -0.2388611481    0.0228573718
 C    0.5560155197   -0.2970985236    1.4770272488
 C   -0.2174117603    0.5239840666    2.4420770413
 N   -0.4927136820   -0.9144048780    2.3237171090
 C   -1.6356156039   -1.2163129334    1.4425398428
 C   -1.3948241806   -0.5043970580    0.1133148912
 C   -2.3794927344    0.3315867066   -0.5828076944
 O   -2.0620493794   -0.9888555985   -1.0443192127
 H    1.2928037380    1.0517890474   -0.8305985104
 H    0.5701877982   -1.0667500076   -0.5381190020
 H    1.5810212958   -0.5831479942    1.6970491673
 H    0.2377102923    0.8194215458    3.3824747621
 H   -0.9369281688    1.2344626838    2.0415673211
 H   -1.6620526479   -2.2990448848    1.2739068678
 H   -2.5768277786   -0.9286564134    1.9204467450
 H   -3.3757187034    0.4476746257   -0.1568350705
 H   -2.0333115053    1.1406482641   -1.2198338356