18

 C   -0.8946256716    0.6857421173   -0.1388365644
 O    0.0325223034    0.4989889681   -1.1836689239
 C    1.2261994377   -0.1493024107   -0.7944635737
 C    1.0652021754   -1.6563167374   -0.5905208804
 C    0.7320422720   -2.5487867682   -1.8264856259
 C    1.9473415705   -3.4741849584   -1.5107608832
 C    2.3718881612   -2.4603345025   -0.4362904197
 O    3.3656491639   -2.2937428367    0.2101297528
 H   -1.2964092142   -0.2632267937    0.2470262381
 H   -0.4500420852    1.2386087561    0.7033749407
 H   -1.7233231063    1.2697963883   -0.5463880213
 H    1.9389889725    0.0350407594   -1.6058032428
 H    1.6406256286    0.3015629873    0.1207878095
 H    0.4002172787   -1.8596495346    0.2573875156
 H   -0.2461074404   -3.0301289983   -1.8126218754
 H    0.8396666775   -2.0068078957   -2.7686467490
 H    1.6748500826   -4.4411136365   -1.0750424665
 H    2.6769242536   -3.6518902138   -2.3053773004