19

 C    0.0166913921    0.9936180388    0.4436908724
 O   -0.2214461623    0.0063767923   -0.5435431868
 C   -1.3997204710   -0.6954216184   -0.3307342704
 C   -1.5777747743   -2.0375922857   -0.9326422605
 C   -0.2574560967   -2.8135523810   -0.9429507204
 C   -0.1359785860   -2.6405302530    0.6007767892
 C   -1.4737469969   -1.8727765131    0.6279270988
 C   -2.4733831704   -1.9872231425    1.6311418228
 C   -3.3138060433   -2.0877996113    2.4886162050
 H    0.9623068969    1.4782895785    0.1914611848
 H   -0.7817141153    1.7503006247    0.4549115074
 H    0.0900362017    0.5522804627    1.4470432769
 H   -2.2964629188   -0.0733894576   -0.3111694895
 H   -2.4569421093   -2.2816335574   -1.5173469861
 H   -0.3909805123   -3.8573915706   -1.2317374753
 H    0.5375814478   -2.3714899339   -1.5471236931
 H   -0.2016325192   -3.5886311981    1.1359389690
 H    0.7300718598   -2.0826095982    0.9653897135
 H   -4.0545536125   -2.1769348564    3.2436159125