18

 C   -0.0905823650    1.5909630185    0.1296263398
 C    0.0269846255    0.0898489415   -0.0987058984
 C    1.0061164041   -0.4088109792   -1.2084302091
 N    1.7384617547   -1.1154455155   -0.1532094388
 C    2.9878738591   -1.8442894143   -0.1470627742
 C    4.1080791633   -1.0673846460   -0.6790569893
 C    5.0112425347   -0.4239651604   -1.1411874248
 C    0.9524657100   -0.6698964466    0.8843301257
 O    1.0250249798   -0.8308808198    2.0748173760
 H    0.8969306278    2.0617596395    0.1760992144
 H   -0.6594983064    2.0708976254   -0.6728678709
 H   -0.6009519177    1.7906430104    1.0762845339
 H   -0.9600492659   -0.3766172676   -0.1663521933
 H    0.5760849773   -1.0665636891   -1.9713447039
 H    1.5895790727    0.3826446100   -1.6907481455
 H    3.1722015419   -2.1185227697    0.8982185072
 H    2.8901900634   -2.7806231912   -0.7141092427
 H    5.8195288305    0.1412825340   -1.5351327361