18

 C    0.0817714075    1.4490430823   -0.1177525288
 N    0.0006666188    0.0133406604   -0.0512735818
 C   -1.1336031268   -0.9125701615   -0.0413308547
 C   -0.0979913812   -2.0781752864    0.0200735260
 C   -0.0707131769   -3.0755807964   -1.1401110184
 C    1.1559630736   -3.9721265764   -1.0896760378
 O    1.1125727517   -5.1720108980   -1.1845840433
 C    0.9702360980   -0.9542828234   -0.0258959501
 O    2.1745009153   -0.9005523765   -0.0569963945
 H    1.1401279270    1.7202834234   -0.1273357128
 H   -0.3913316592    1.8368419885   -1.0281776794
 H   -0.3968323484    1.9193787320    0.7496540953
 H   -1.7869140952   -0.8134189886    0.8324531454
 H   -1.7394974246   -0.8824582958   -0.9546461566
 H   -0.1051583753   -2.5990265338    0.9818455443
 H   -0.9628140286   -3.7088582611   -1.1536586905
 H   -0.0319778151   -2.5218596453   -2.0899049900
 H    2.1160327794   -3.4303841437   -0.9582264922