13

 C    0.0383743462    1.3356109587    0.0088913795
 O   -0.0367201055   -0.0977643822    0.0022315173
 C   -1.2757788915   -0.6021214793    0.0092633345
 O   -2.2931311854    0.0502444756    0.0203014296
 C   -1.2743823747   -2.0738372490    0.0015015959
 C   -2.3613228020   -2.9005686850    0.0056175270
 O   -1.9685414268   -4.1530855645   -0.0034861631
 N   -0.4900090536   -4.0988374483   -0.0154805202
 N   -0.1679418349   -2.8980835013   -0.0115462105
 H    1.1015627113    1.5724552683    0.0018963412
 H   -0.4546169459    1.7488713404   -0.8742651408
 H   -0.4409256582    1.7398901619    0.9036637838
 H   -3.4185047489   -2.6889974152    0.0150868458