18

 N    0.1026032558    1.1743276472    0.4145022700
 C    0.0819436747   -0.0196912114   -0.2452046410
 O    0.9732696468   -0.3991360851   -0.9805112088
 C   -1.1965349697   -0.8326586636   -0.0532979592
 C   -1.0260522514   -2.3459184803    0.0870013585
 C   -0.3054831963   -2.6573388938    1.3594770229
 C   -1.7800903947   -2.3346769775    1.4254530283
 C   -2.0158394981   -0.8371601993    1.3036834834
 O   -1.6280023259    0.0045984622    2.3793247588
 H    0.9501847327    1.7170675614    0.3576601089
 H   -0.5265455482    1.3178014331    1.1924431234
 H   -1.8640512887   -0.5669955817   -0.8788687807
 H   -1.1103466681   -3.0595408194   -0.7207691731
 H   -0.0668687222   -3.7024912495    1.5246279667
 H    0.4535175956   -1.9767468973    1.7408527542
 H   -2.4983177251   -3.0463913704    1.8134376388
 H   -3.0634618607   -0.5962455304    1.1113861816
 H   -0.8789229867   -0.4118019844    2.8205927475