18

 O    0.0422821009    1.4681411554    0.0456540282
 C    0.0607634422    0.0558794802   -0.0105912202
 C   -1.4151067941   -0.4515401170    0.0154489279
 C   -1.4391899530   -1.9836661264   -0.0705586111
 C   -0.1764318614   -2.6843155422   -0.3689353359
 N   -1.3547778876   -2.9619989750   -1.2561782471
 C   -0.5499337744   -2.4671030221   -2.4568197884
 C    0.4108901473   -1.8258531847   -1.4786764616
 C    0.5607289762   -0.5088405301   -1.3208732622
 H    0.9532693092    1.7787305674    0.0406987329
 H    0.5849221485   -0.3713243848    0.8571678995
 H   -1.9015306294   -0.1467057462    0.9485763291
 H   -1.9583358930    0.0362847549   -0.8002907737
 H   -2.1057024640   -2.4584615009    0.6438770556
 H    0.3115998616   -3.4532067708    0.2208235184
 H   -0.2102427892   -3.3696393313   -2.9736085418
 H   -1.0748292314   -1.8086011139   -3.1561687614
 H    0.5354097716    0.1653347874   -2.1754643784