20

 C   -0.5882508780    1.0130118954   -0.1147539205
 N    0.0937371855   -0.2522077718    0.0637500844
 C    0.6045432273   -0.7815649444   -0.9551496491
 O    1.3063468087   -1.9340242128   -0.8497254031
 C    1.5888462768   -2.6204264027   -2.0689400512
 C    2.5674477804   -3.7777027130   -1.7815632979
 C    1.3541706354   -4.7366316322   -1.6119639660
 C    0.4804486588   -3.6845091937   -2.3539374572
 O   -0.8208131921   -3.4099522323   -1.9268459985
 H   -0.1056919812    1.7811605069    0.5004330989
 H   -0.6087625541    1.3688433165   -1.1577469392
 H   -1.6217044994    0.9257497693    0.2390144904
 H    0.5573690452   -0.3716188548   -1.9755158220
 H    1.8376153147   -1.9008366959   -2.8567059923
 H    3.1777104353   -4.0131329385   -2.6565260712
 H    3.2180163404   -3.6301238792   -0.9187335002
 H    1.4189898682   -5.7360769300   -2.0460011202
 H    1.0555392802   -4.8235286494   -0.5635613252
 H    0.4208380872   -3.9010464048   -3.4248910028
 H   -0.7732537191   -3.1593528023   -0.9961730871