20

 C    0.2947918384    1.3098682756    0.4229971538
 C   -0.0239016896   -0.1090609275   -0.0349588970
 C   -1.3908043038   -0.5740531708    0.4708265938
 C    0.6637344044   -0.4602357098   -1.3068795482
 N    1.2387807646   -0.9032842372    0.0227265119
 C    1.1223350697   -2.3307558296   -0.4685703774
 C   -0.1993952169   -2.8583604992   -1.0152110596
 C    0.6367673006   -1.9163217818   -1.8261694291
 O    1.1714695076   -2.2269005959   -3.0624313343
 H    1.2908374038    1.6152099902    0.0948914425
 H   -0.4432148390    2.0144314841    0.0239142531
 H    0.2655067347    1.3662660195    1.5161254340
 H   -2.0886888133   -0.8012010473   -0.3388896256
 H   -1.3077082460   -1.4516393727    1.1154797635
 H   -1.8410475004    0.2226360964    1.0695491280
 H    1.1889206607    0.2889733336   -1.8957367478
 H    1.9130019279   -3.0050468235   -0.1666129524
 H   -0.0742462422   -3.8842915938   -1.3544488424
 H   -1.1820118522   -2.6464425944   -0.6233573081
 H    0.4524079411   -2.2524435859   -3.7039513688