13

 O    0.1032857332    0.0115926768   -0.0173620772
 C    0.0384549718    1.1947284177    0.0304181371
 C   -1.1230604641    2.2393372799    0.1507571936
 C   -1.9983498695    2.2146943285    1.3012517989
 C   -2.7033876051    2.1808695298    2.2741682146
 C    0.0121886968    3.2714693103    0.0722510160
 C    1.0311049513    3.0266641398    1.0950826997
 N    1.0746748844    2.1906795045   -0.1533163746
 H   -1.6959859515    2.2080806872   -0.7833683001
 H   -3.3331324336    2.1501087164    3.1289612231
 H   -0.0021752117    4.1500135879   -0.5598778223
 H    1.8772844727    3.7018502020    1.1563772031
 H    0.7543171152    2.5479828691    2.0303179581