18

 O    0.1587416912    1.0599365805    1.5094678878
 C    0.0527136955    1.3795730697    0.3409024927
 N    1.0811713257    1.4468739804   -0.5504884522
 C    2.4085217809    1.0301231760   -0.2127163099
 C    3.5571903374    1.7083893484   -0.9071970219
 C    3.2975584509    1.9695833709    0.5561318530
 C   -1.2862566128    1.7743727852   -0.2403475326
 C   -1.4912243054    3.1135271878   -0.8184297913
 O   -1.3644484407    1.9655878465   -1.6578741292
 H    0.8211652638    1.5445662354   -1.5217729837
 H    2.5091819382   -0.0289917441    0.0109117217
 H    4.4088381954    1.1006611579   -1.1899436484
 H    3.3189280065    2.5014737586   -1.6079386141
 H    2.8786509596    2.9304003092    0.8295340812
 H    3.9672741970    1.5399144835    1.2916241216
 H   -2.1301339860    1.2637717231    0.2173873905
 H   -2.4822935056    3.5618635943   -0.7880608786
 H   -0.6559798514    3.8103042766   -0.8504535165