14

 O    0.0770561883    1.4651146450   -0.2590700423
 C    0.0210766738    0.1066569055   -0.0673152304
 C   -0.0339317171   -0.4147769891    1.3924125605
 O   -1.1470476246   -1.2822626089    1.0780943188
 C   -1.3763601854   -0.6323005605   -0.1804949917
 C   -2.5280465677    0.2708335221   -0.1755100433
 N   -3.4447682741    0.9736732756   -0.1794191244
 C    1.0571885414   -0.6100018683   -0.9108825572
 O    1.7747239161   -0.0023037003   -1.6643714687
 H    0.7180491942    1.6176804286   -0.9737440536
 H    0.8247853145   -0.9739862979    1.7765463540
 H   -0.3094996501    0.3854531261    2.0878104811
 H   -1.4919550448   -1.3567011702   -0.9949274298
 H    1.1095809754   -1.7105998679   -0.7957700629