17

 N   -0.0470296831    1.1582665759    0.5583198163
 C    0.0004909963    0.0317430210   -0.0075239022
 O    1.1819150223   -0.6044895035   -0.2711863473
 C    1.2380687981   -1.6611171580   -1.2363895160
 C    0.0282546335   -2.5429411974   -1.1219157596
 C    0.0692249276   -3.9447906290   -1.5939899959
 N   -0.0077848668   -3.6469712170   -0.1535391599
 C   -1.2121414141   -1.6986362619   -1.2033031920
 O   -1.1559319616   -0.6072774701   -0.2781473767
 H    0.8996954600    1.4852230372    0.7392716816
 H    1.3051627034   -1.2254140614   -2.2436256271
 H    2.1670167390   -2.2022011357   -1.0346117400
 H   -0.8207780363   -4.4026202778   -2.0174528081
 H    1.0046484589   -4.3131078516   -2.0094304062
 H    0.9018810582   -3.7693604129    0.2858152633
 H   -1.3411559150   -1.2988047879   -2.2190490195
 H   -2.0992507304   -2.2718835700   -0.9302398007