23

 C   -0.0384692106    1.5856816609   -0.0205427024
 C    0.0340135955    0.0564881546   -0.0097760088
 C    0.7315409688   -0.5019149677    1.2375104251
 C    0.7817506452   -2.0327262350    1.2893579941
 C    1.6291210104   -2.6740898487    0.1603168693
 O    2.1607403487   -3.8960351257    0.6679545331
 C    2.2380361257   -3.7862405726    2.0662580419
 C    2.9282002869   -2.5858309572    2.6608354579
 C    1.4105091180   -2.6317206261    2.5430422494
 H    0.9630303163    2.0296130978    0.0019356490
 H   -0.5463749966    1.9561704503   -0.9164285955
 H   -0.5844712718    1.9620350368    0.8518391265
 H   -0.9805182633   -0.3597276298   -0.0712017426
 H    0.5571778861   -0.2877804834   -0.9113423577
 H    1.7543929483   -0.1051107746    1.2955511803
 H    0.2129595853   -0.1325554914    2.1321381547
 H   -0.2446861596   -2.4187871280    1.2244884023
 H    1.0548595195   -2.9099939199   -0.7394813554
 H    2.4448018047   -1.9945757619   -0.1320807641
 H    2.2791244071   -4.7557290912    2.5482278215
 H    3.3473683108   -2.6966573118    3.6552106543
 H    3.4971617036   -1.9291269682    2.0113765721
 H    0.8140437910   -2.6839103572    3.4466063051