17

 C   -0.0187990091    1.4697380864    0.0598316103
 C    0.0264994765   -0.0241849867   -0.0706724340
 N   -0.0335385207   -0.6062188493   -1.1946219349
 C   -0.0405384439   -2.0630131330   -1.2530030198
 C   -0.3819902011   -2.7263386879    0.0778069847
 O   -0.0171139529   -4.0941753209   -0.0007241351
 C    0.4028552636   -2.0073221826    1.1737894555
 O    0.1317871495   -0.6039401427    1.1642658711
 H    0.9035044932    1.8394250232    0.5194723380
 H   -0.1468248654    1.9193857615   -0.9236468771
 H   -0.8454000576    1.7663534423    0.7134631490
 H   -0.7508430887   -2.3748930957   -2.0258197501
 H    0.9448967858   -2.4225351010   -1.5782511902
 H   -1.4582568419   -2.6105329281    0.2770401828
 H   -0.3958812881   -4.5564809987    0.7538130182
 H    0.1342493402   -2.3624831796    2.1733704655
 H    1.4759699507   -2.1810423071    1.0199917361