22

 C    0.2419991170    1.9529018871    0.0250229749
 C    0.3888430024    0.4449691488   -0.0286597374
 C    1.6267840538   -0.3851951780   -0.3366252303
 N    2.8599842324    0.0235701833    0.3139073075
 C    3.6398783029    1.1577542434   -0.1334187600
 C    2.2501521546   -0.0889498772    1.6739747417
 C    2.3208234652    1.0723137077    2.6581880207
 C    0.9270504294   -0.5105310442    1.0116698796
 O    0.1912638522   -1.5890543993    1.4797997583
 H    1.1298586064    2.4534820304    0.4085835162
 H    0.0517239974    2.3503304104   -0.9783126951
 H   -0.6038442533    2.2444082412    0.6592906266
 H   -0.4689108310   -0.0374547654   -0.5010423480
 H    1.6531093922   -1.0793399863   -1.1714813945
 H    3.1349456839    2.1371054186   -0.1073015837
 H    4.5515617206    1.2348579149    0.4693358103
 H    3.9502688212    0.9789830486   -1.1689072692
 H    2.6710033366   -0.9764945221    2.1675971288
 H    1.8769689526    1.9943918076    2.2795209430
 H    1.7910872232    0.7974671660    3.5770287175
 H    3.3595914416    1.2837406344    2.9350364829
 H   -0.5797276614   -1.2480794498    1.9447299004