15

 N   -0.0871222740   -1.2233538786   -0.1016485202
 C   -0.0743626642   -0.0673184639   -0.0693403857
 C   -0.0504738081    1.3869914202   -0.0211444397
 C    0.0131106375    2.0705016167    1.3697436969
 C    1.5462091759    1.7868044997    1.5360596524
 C    1.8516555333    3.2633065078    1.8580181815
 C    0.7459593801    3.3259484917    0.7855011041
 C    1.3297375779    2.0938133844    0.0137518935
 H   -0.7805598919    1.8021687677   -0.7228987980
 H   -0.7430273597    2.0579647692    2.1543912403
 H    1.9868348105    0.8797254967    1.9482998740
 H    1.5854686253    3.6140417555    2.8596367504
 H    2.8387819786    3.6362281917    1.5688435446
 H    0.2632864158    4.1924898607    0.3317370520
 H    2.0917605729    2.1081582504   -0.7651505262