22

 C    0.1082390273    1.5375715159   -0.2266541043
 C    0.0059214007    0.0375674908   -0.0510013518
 C    1.1550457881   -0.8033592360   -0.4715566238
 N    0.8496475974   -0.6229355520    0.9642710036
 C   -1.4006892135   -0.5764672853   -0.1085633669
 O   -1.3362171932   -1.9643555325    0.1792032320
 C   -2.3891173300    0.1333660581    0.8286479160
 C   -3.7636155731   -0.5228854929    0.8268271817
 O   -4.6091153082    0.2440943823    1.6750384808
 H    1.1551704301    1.8533936244   -0.2769632471
 H   -0.3789050317    1.8571908910   -1.1549520464
 H   -0.3681321533    2.0754549036    0.5989116777
 H    0.9829774438   -1.8083235263   -0.8416013125
 H    2.0281828489   -0.3003633351   -0.8783584618
 H    1.4905945358    0.0376512663    1.3944870965
 H   -1.7689032144   -0.4986598456   -1.1414349667
 H   -0.7162904288   -2.0345695625    0.9229249724
 H   -1.9926255347    0.1300917840    1.8518738660
 H   -2.5098839122    1.1814834725    0.5325995794
 H   -4.1574581541   -0.5531720809   -0.2033886851
 H   -3.6742807957   -1.5608909986    1.1716686563
 H   -5.4529041994   -0.2116673813    1.7430434740