19

 O    0.2383176850    1.2911572466   -0.1952185477
 C    0.0900230572   -0.1041566197   -0.0705165161
 C   -1.3870443070   -0.4705683361    0.1479182119
 O   -2.1619973235    0.1860214957   -0.8542196433
 C   -1.5688030846   -1.9801874607    0.2019227623
 C   -2.8552121879   -2.7890536831    0.1521938858
 C   -3.8023555440   -2.2679882357   -0.9235178651
 O   -2.7277836010   -2.2639482450   -1.9182659296
 C   -1.8355068707   -2.8783435487   -0.9657922642
 H   -0.4970206622    1.5676334793   -0.7592774204
 H    0.4598754660   -0.6358756244   -0.9656822582
 H    0.6983568110   -0.4272930485    0.7823824019
 H   -1.7075164226   -0.0314174831    1.1019669713
 H   -2.2164860902   -0.4164634017   -1.6123429149
 H   -0.8666625226   -2.4431689112    0.8954909075
 H   -3.1156583995   -3.5090924706    0.9160258593
 H   -4.5634437672   -2.9996310145   -1.2125972103
 H   -4.2459445110   -1.2787317541   -0.7929862912
 H   -1.1987092351   -3.6756257845   -1.3316734989