10

 C    0.0304025764   -1.1749151312   -0.0042980424
 C   -0.0125206125    0.0262180996    0.0030223201
 C   -0.0548466036    1.4505306352    0.0115976252
 N   -1.2442684590    2.0605832929    0.0306123100
 C   -1.1465830758    3.3827218713    0.0365691448
 N   -0.0097814817    4.0860037025    0.0254092170
 N    1.1287957707    3.4087131247    0.0066339827
 N    1.1337200971    2.0936136159   -0.0006502932
 H    0.0679657648   -2.2373677765   -0.0107625350
 H   -2.0671405964    3.9602785458    0.0519099408