15

 C   -0.1031576623   -1.1543745407   -0.1381793572
 C   -0.0261869792    0.0432787356   -0.0623437511
 C    0.0640726132    1.4875668575    0.0318388300
 C   -0.0410920703    1.9971090425    1.4822092262
 C    1.4259616463    1.9780096196    1.6652985136
 C    1.5309899217    2.0364397632    0.0930670584
 C    1.2938950629    3.5437296161    0.2635140549
 N    0.7138097186    3.2876125996    1.6248270677
 H   -0.1732902226   -2.2114829133   -0.2085474186
 H   -0.5857860694    1.9629795067   -0.7131033752
 H   -0.8340390607    1.8111937280    2.1934994627
 H    2.0747623081    1.6533716967    2.4667838065
 H    2.2967328469    1.6110838732   -0.5510744352
 H    2.2153483334    4.1178797576    0.3869817582
 H    0.6298925233    4.0521384776   -0.4458857711