20

 C   -0.0329321736    1.5376061965   -0.0097513436
 C    0.0127967939    0.0367796931   -0.0120109383
 C    0.5888864823   -0.8087003626   -1.1174428219
 N    2.0644506505   -0.8566657132   -0.9340200422
 C    1.1917229555   -1.7561100966   -0.1321763391
 C    0.6471617869   -0.9613390391    1.0254428999
 C    1.3797433356   -0.6900885238    2.3076052596
 C   -0.8564501629   -0.8531921395    0.8553368668
 O   -1.6328860981   -0.2932804893    1.8700658981
 H    0.9545203150    1.9540784126   -0.2309384249
 H   -0.7362188481    1.9085486365   -0.7650972442
 H   -0.3580044972    1.9470242829    0.9529918600
 H    0.1440255522   -1.0310083096   -2.0811594413
 H    2.4358284191   -1.4190253760   -1.7020993575
 H    1.2911303612   -2.8334245826   -0.2070510837
 H    2.3751158631   -0.2825955055    2.1060022234
 H    0.8505320168    0.0226766171    2.9491875875
 H    1.5005626988   -1.6111426732    2.8905607085
 H   -1.4133738445   -1.6730947541    0.4071714202
 H   -1.1622281464    0.4489199664    2.2612795926