18

 C    0.1941579622    1.4914250516    0.1712630045
 C   -0.1453038269   -0.0045835696    0.0086248871
 C   -1.6005560861   -0.1981248732   -0.0407372546
 N   -2.7466576365   -0.3375661464   -0.0893425214
 C    0.5168772135   -0.5854073527   -1.2380687760
 C    1.9134811297   -1.1056441217   -1.1869153637
 C    0.7640970866   -2.0765372946   -1.4432059834
 C    0.4454348044   -3.0827647371   -0.4012369318
 O    0.0724132344   -4.2034757538   -0.6378890866
 H    1.2773967199    1.6153050842    0.2488686087
 H   -0.1597526336    2.0638431227   -0.6906496142
 H   -0.2725471230    1.9021818890    1.0695055407
 H    0.2183965576   -0.5367589084    0.8949489263
 H    0.2265367093   -0.0680264898   -2.1482299652
 H    2.5913876751   -0.9035165570   -2.0075150884
 H    2.3928148967   -1.1691402800   -0.2139064024
 H    0.6361366549   -2.4503114745   -2.4528992344
 H    0.6017395318   -2.7427282887    0.6491017949