27

 C    0.4850055222    1.7181749789   -0.0439761846
 C    0.1884120543    0.2154123365   -0.1066586572
 C    0.5885013630   -0.5385723724    1.1651494279
 C   -0.2299875065   -0.1662416770    2.4304227278
 C   -0.1859261618   -1.4192612826    3.3468042885
 C    0.6853091024   -2.4584177069    2.5990104865
 C    0.4050400994   -3.9086793763    2.9895941361
 C    0.5094622243   -2.0863475005    1.1045770974
 C   -0.7901757022   -2.6181918822    0.4832814099
 H    1.5513230164    1.9033573027    0.1291524221
 H    0.2088286365    2.2162287758   -0.9787753053
 H   -0.0694639816    2.2039671666    0.7656616089
 H   -0.8811005675    0.0679358294   -0.3023710025
 H    0.7194057732   -0.2190805294   -0.9643379055
 H    1.6416828099   -0.2956909949    1.3698960433
 H    0.1731699361    0.7220415760    2.9243973464
 H   -1.2628718697    0.0763918256    2.1549443488
 H    0.2162086614   -1.2002453132    4.3404938136
 H   -1.1942310378   -1.8186555189    3.5044578239
 H    1.7355552397   -2.2458321092    2.8431627112
 H   -0.6426963771   -4.1788093204    2.8212647175
 H    1.0277483564   -4.6076389421    2.4199038202
 H    0.6160904813   -4.0710431799    4.0523059355
 H    1.3476664402   -2.4812675184    0.5162914021
 H   -1.6802570249   -2.2684815124    1.0180669040
 H   -0.8866453881   -2.2990303515   -0.5584499941
 H   -0.8106447592   -3.7119207832    0.4910681875