23

 C   -0.3069946959    1.4554469267   -0.0581039520
 C    0.0293523688   -0.0348436769    0.0491293740
 C    0.8103140779   -0.3260140154    1.3394099153
 O   -1.2374348637   -0.7057540752    0.1052066461
 C    0.7922394777   -0.4960442272   -1.1844489565
 C    0.0915299524   -0.7940008600   -2.4806349914
 C    0.8730037232   -1.8951712295   -1.8132495597
 C    2.3681556087   -1.7111552768   -2.0903849833
 C    2.2910251513   -0.2771245190   -1.4695169834
 H    0.6054942647    2.0523277264   -0.1483596118
 H   -0.9292331848    1.6373598530   -0.9380677742
 H   -0.8550425421    1.7879169371    0.8283926379
 H    0.1929049063   -0.0738004907    2.2061346245
 H    1.0772130969   -1.3877270982    1.4010271189
 H    1.7353495976    0.2546833026    1.3969465368
 H   -1.0612420562   -1.6386036042    0.2709046405
 H   -0.9856420620   -0.8794090347   -2.3944253347
 H    0.4465785273   -0.3630440054   -3.4151712251
 H    0.3962616498   -2.8205092374   -1.5073937899
 H    3.0042069199   -2.3780078322   -1.5037157389
 H    2.6700689065   -1.7786439862   -3.1410362306
 H    2.5286019609    0.5614773132   -2.1324869764
 H    2.9015990847   -0.1882552802   -0.5688247558