18

 O   -0.0802089368    0.0652531471   -0.7028401696
 C   -0.0239714171    1.1042790303   -0.1037449068
 C   -1.3065700635    1.9636588983    0.0276549098
 N   -1.3333781082    3.1890510854    0.7943434935
 C   -0.1890649402    4.1030212021    0.4815442485
 C    0.5766237532    3.5545241367    1.7072887420
 C   -0.7892853226    3.0067508743    2.1750597730
 C    1.5695064434    2.4634358571    1.3506109536
 O    1.1961919332    1.5200358377    0.3329701366
 H   -1.5912281861    2.1829458699   -1.0079725159
 H   -2.0724293653    1.2818891589    0.4110958225
 H    0.2660265017    3.9574128549   -0.5027287692
 H   -0.4919103867    5.1492822187    0.5842923155
 H    1.0790155784    4.2750304588    2.3610870865
 H   -1.3060077096    3.6577716842    2.8869614680
 H   -0.8186563687    1.9784676006    2.5527786930
 H    2.4947772090    2.9104484389    0.9726176074
 H    1.8227688558    1.8837067261    2.2478450517