20

 C   -0.0219675541    1.4443458602   -0.0719962334
 N    0.1166608650    0.0060521575    0.0486698533
 C   -1.1121095629   -0.7855109973    0.3139976290
 C   -0.3940405695   -1.5205591787    1.4805154828
 O    0.0836989049   -2.8282322840    1.2409224727
 C    1.2753775194   -2.7415920126    0.4663393371
 C    1.9763349419   -1.4207178857    0.8702891326
 O    2.7507548948   -0.8593508235   -0.1609277655
 C    0.7777222012   -0.5346887480    1.2646691128
 H    0.9685757303    1.9060350074   -0.1299753174
 H   -0.5628585403    1.6889086056   -0.9920964325
 H   -0.5664781441    1.9008766309    0.7751783305
 H   -1.9539946702   -0.1696778724    0.6609608556
 H   -1.4440566195   -1.4081381063   -0.5234058785
 H   -0.9278876808   -1.5280080508    2.4311230808
 H    1.8708497573   -3.6350665787    0.6679024676
 H    1.0542969773   -2.7068840184   -0.6112365182
 H    2.6392602971   -1.5797603030    1.7259792067
 H    2.0938985929   -0.5115019222   -0.7850197082
 H    0.9927962493    0.2041518401    2.0424314919