15

 C    0.0681019629    1.4632053303   -0.0283784872
 C   -0.0480479654   -0.0186409249    0.0631063417
 O    0.4616097412   -0.8600104854   -1.0653738769
 C    0.0276871717   -1.8833849691   -0.0873162806
 C    0.6469554997   -1.0228822849    1.0545275142
 C    2.0892544704   -0.9592451122    1.1320331386
 C    3.2842240499   -0.8906582411    1.2402698614
 C   -1.2500537933   -1.0087261566    0.0130087125
 O   -2.4307396012   -1.0451434946   -0.0859340827
 H    1.1192770575    1.7650987797   -0.0409930851
 H   -0.4182011637    1.8252538886   -0.9383026283
 H   -0.4201984155    1.9279437670    0.8334392130
 H    0.2005624789   -2.9276417269   -0.3338587667
 H    0.1764677090   -1.1226116406    2.0386737572
 H    4.3418609081   -0.8392934093    1.3232360489