19

 C   -0.0337325890    1.3300026128    0.1667579163
 C    1.3326998823    1.9954077115    0.0367977656
 C    2.1018540217    1.7175759638   -1.2495695703
 C    1.4476636886    1.4034365254   -2.6252792745
 O    2.7713724658    0.9207780073   -3.0819259748
 C    2.5681150300    0.3124522141   -1.7431430045
 C    1.1343598028   -0.0673135736   -2.2011079931
 C    0.0221650750   -0.5415656862   -1.2738360571
 O    0.0505281475   -0.0768905879    0.0578481618
 H   -0.4578775818    1.5440268879    1.1537278838
 H   -0.7337873318    1.7309520220   -0.5852825824
 H    1.1933768102    3.0808487137    0.1281360279
 H    1.9551684900    1.6937439615    0.8887704090
 H    2.9178296691    2.4350497261   -1.3706984423
 H    0.8973055439    2.0584702398   -3.3031806273
 H    3.3654402913   -0.3241554897   -1.3568617808
 H    1.1604140574   -0.7193601102   -3.0800515180
 H   -0.9506168605   -0.3048471145   -1.7412780710
 H    0.0840555674   -1.6326036136   -1.1986937381