18

 C   -0.1091817460    1.6440221883   -0.1213405772
 C   -0.0044296087    0.1210565217   -0.0037252858
 C    0.5250674679   -0.5231053454   -1.2791228461
 O    1.9129150309   -0.2069193411   -1.5010234149
 C    2.7828292240   -0.5575704220   -0.5174339125
 O    3.9553381550   -0.6561199831   -0.7476777789
 C    2.1838965088   -0.7718279120    0.8447771422
 C    1.8934309411    0.4432597393    1.6633953163
 N    0.8047308804   -0.3698789311    1.1406293366
 H    0.8208664604    2.0963174975   -0.4763607170
 H   -0.8952274903    1.9004305986   -0.8383592933
 H   -0.3718174514    2.0918394852    0.8409148031
 H   -1.0156578458   -0.2733327128    0.1585933968
 H    0.4114366174   -1.6126026206   -1.2320901699
 H   -0.0018908623   -0.1591347903   -2.1638792444
 H    2.5387211385   -1.6726456247    1.3372605854
 H    2.0290570541    0.4033663701    2.7406594172
 H    2.1091024860    1.4089650423    1.2155676925