11

 C   -0.0160798884    1.4874839529    0.0017354897
 N    0.0022417336    0.0260917781    0.0097461586
 C   -0.0840298435   -0.6754640189    1.2039103524
 O   -0.1775717470   -0.1683715116    2.2927148126
 C    0.1071404986   -0.6539536728   -1.1927674825
 O    0.1857685914   -0.1101368057   -2.2651216242
 H    0.9040695969    1.8682156584   -0.4465611077
 H   -0.8621850815    1.8452275586   -0.5887802836
 H   -0.1035214148    1.8199139991    1.0345361470
 H   -0.0570029106   -1.7680130699    1.0430087444
 H    0.1107162654   -1.7509927682   -1.0595727567