15

 O    0.5364547157    0.3069148696   -0.8537413738
 C   -0.1367086586    0.2936585919    0.4084962688
 C   -1.5120388902   -0.2675499580    0.3259651165
 C   -2.7335624713    0.2174863598    0.7245047993
 C   -3.7311621973   -0.7568647377    0.4096264845
 C   -3.0679789887   -1.8053377283   -0.1848106539
 O   -3.4758188824   -2.9886255092   -0.7084971404
 N   -1.7364489788   -1.5220524470   -0.2265551977
 H   -0.0339122799    0.7823056322   -1.4681217867
 H    0.5133023429   -0.3105566655    1.0540730412
 H   -0.1936737541    1.2969327881    0.8549462768
 H   -2.8992034597    1.1677963945    1.2099806379
 H   -4.7921892959   -0.6941762136    0.5953032217
 H   -4.4330260528   -3.0393351734   -0.6294220168
 H   -1.0419088490   -2.0852128935   -0.6874761476