17

 C   -0.1306769952    1.4875399310   -0.0254637681
 C    0.0193355994   -0.0275377007    0.0018743014
 C    1.4023353889   -0.6194592974   -0.1664313276
 C    0.7879727299   -0.6311843509    1.2104570113
 O    1.2017869847    0.2873156965    2.1776900345
 C    0.3213869936   -1.9333272489    1.7773223276
 O    0.1600254448   -2.9455199259    1.1434151400
 C   -1.1059355672   -0.7461320370   -0.5326408234
 C   -2.0710338165   -1.2895180107   -0.9998036412
 H    0.7171021327    1.9722584343    0.4596162291
 H   -0.1975092162    1.8313662566   -1.0618102044
 H   -1.0436518897    1.7919450996    0.4932366974
 H    1.4811336865   -1.5843011590   -0.6542234754
 H    2.2162812933    0.0778339193   -0.3343478074
 H    2.1284960324    0.1184271661    2.3796117934
 H    0.1383196510   -1.8794250594    2.8731500454
 H   -2.9127400824   -1.7932329334   -1.4062078425