19

 C   -0.0333608678    1.4416601109    0.0793941612
 C    0.0172864141   -0.0616106333   -0.0365332751
 O    1.0516892437   -0.6746109880   -0.2007904514
 C   -1.2955344636   -0.8443361871    0.0529475605
 O   -1.0445566628   -2.2119569271   -0.1840016902
 C   -1.9655148767   -0.6589798524    1.4069430161
 C   -3.2207951117    0.1841323578    1.5426174049
 C   -3.3135952981   -1.3134513795    1.5756201783
 O   -3.8873801100   -1.9429136406    0.4715866541
 H    0.9721097470    1.8547198246   -0.0069201722
 H   -0.6724952956    1.8561773667   -0.7081373844
 H   -0.4792248217    1.7363314975    1.0344951535
 H   -1.9701146636   -0.4605047903   -0.7269655945
 H   -0.0800786034   -2.2836316669   -0.2809463369
 H   -1.2932049153   -0.7064077322    2.2596678384
 H   -3.3773088424    0.7393581673    2.4604945511
 H   -3.5969081041    0.6668592139    0.6468770594
 H   -3.5201614816   -1.7866235791    2.5350969806
 H   -3.2544519864   -2.6068812321    0.1673687666