16

 C    0.0358282968    1.4925878056   -0.0657670819
 C   -0.0473762533   -0.0387236494    0.0201370657
 O    0.6579564374   -0.5944082079   -1.1047676647
 C    1.5827989201   -1.5890456009   -0.6734421214
 C    1.5937986949   -1.4889731682    0.8255330539
 C    0.6761702149   -0.6190086505    1.2233875422
 C   -1.4553868955   -0.4758289310    0.0031651346
 C   -2.6057728857   -0.8245506032    0.0040706361
 H    1.0835437105    1.8020257381   -0.0313841062
 H   -0.4075018450    1.8346499961   -1.0040591146
 H   -0.5054647229    1.9554115138    0.7642538524
 H    1.2668332479   -2.5882009865   -1.0148635470
 H    2.5635056990   -1.3845093597   -1.1259776735
 H    2.2546394525   -2.0710429132    1.4552803337
 H    0.4167972871   -0.3423647927    2.2363968007
 H   -3.6200445286   -1.1395179803   -0.0038520299