19

 C   -0.7529171759    1.1848716977   -0.0427275628
 C    0.1782786246   -0.0141371901   -0.0257561636
 C    1.5769515174    0.1155664152   -0.7010963426
 C    2.1606426441   -0.6622031797    0.4726438049
 C    3.0129370060   -1.8512727664    0.4676611462
 O    3.4833506680   -0.5785321017    0.9408222646
 C    0.8906196368   -0.4254969826    1.3289159346
 C    1.0261553738    0.6294895350    2.3139349620
 C    1.1408857390    1.5083056024    3.1268453595
 H   -0.2672029676    2.0668951120    0.3840109313
 H   -1.0536970766    1.4212426369   -1.0691830637
 H   -1.6615531035    0.9916558484    0.5371276565
 H   -0.3381742673   -0.8983333789   -0.4115432575
 H    1.7027991076   -0.2996818899   -1.7036249348
 H    1.9304678714    1.1517689636   -0.6956664573
 H    2.8868625169   -2.6144411884    1.2349326956
 H    3.4586433631   -2.1955571764   -0.4649600438
 H    0.4826701061   -1.3250583661    1.8006973410
 H    1.2517056260    2.2767205692    3.8511160697