19

 C   -0.4532670685    1.3397927039    0.4099946596
 C   -0.0930532487   -0.1272473880    0.1581751926
 C    0.9336619895   -0.6494443489    1.1527700288
 O    0.4601472611   -0.6967475626    2.5291261683
 C    0.6822180674   -2.1260657071    2.6681338735
 C   -0.6125901724   -2.8523333375    3.0148909520
 O   -1.1424934162   -2.3576048959    4.2265514076
 C    1.1716459881   -2.1648343489    1.2148029860
 O    1.5382007436   -3.0068222005    0.4530467638
 H    0.4244968648    1.9863055232    0.3042284460
 H   -1.2118747143    1.6829682099   -0.2991260441
 H   -0.8472526767    1.4712259982    1.4217157483
 H   -0.9928183803   -0.7512775788    0.2109878874
 H    0.3251601053   -0.2575622390   -0.8473549204
 H    1.8672215959   -0.0714946847    1.0853969147
 H    1.4536547593   -2.3384984857    3.4197527096
 H   -1.3298125119   -2.7476515250    2.1858374598
 H   -0.4124098176   -3.9192203469    3.1545073548
 H   -1.2193422184   -1.4018488358    4.1180763013