18

 C    0.0465372283    1.3586190221   -0.1164277139
 N   -0.0520839087   -0.0870225535   -0.2262955278
 C   -1.1471291741   -0.6676754620    0.0025189513
 O   -2.3370030672   -0.0867054456    0.3274957295
 C   -3.2113511775   -1.0638045444    0.9454361181
 C   -2.6227562047   -2.4251812587    0.6326995220
 C   -2.3987199439   -2.7099707346   -0.8360615827
 C   -1.2754678532   -2.1497447986    0.0026882116
 O   -0.1162601145   -2.8639489546    0.2240309242
 H    0.9935566791    1.6164976181    0.3679230072
 H    0.0664061193    1.8049822420   -1.1179939034
 H   -0.7798859613    1.8115984049    0.4434882193
 H   -3.2394915988   -0.8703895815    2.0238460622
 H   -4.2115594312   -0.9064875057    0.5301036528
 H   -2.7735981251   -3.2424996681    1.3260305555
 H   -2.2758844012   -3.7527927108   -1.1062256463
 H   -2.8868821764   -2.0900121632   -1.5828326196
 H    0.5957996910   -2.2207024659    0.0792332702