16

 O   -0.0240344100    1.4174546578    0.0929287195
 C    0.0048995953    0.0322106594    0.0512454730
 C   -0.3775946224   -0.7314519834   -1.1949704650
 C   -1.2659166654   -0.7852262007    0.0347549445
 C   -1.0922607557   -1.9503950035    1.0056243353
 C    0.3291926676   -1.8069541561    1.4946380364
 C    0.9202678249   -0.7127454392    0.9914997844
 C    2.2429962647   -0.2641152684    1.2491423099
 N    3.3127792136    0.1447658724    1.4244189041
 H    0.7165199175    1.7552488036   -0.4237400954
 H   -0.7576870185   -0.1372835646   -2.0193696705
 H    0.2033295678   -1.6027990032   -1.4809623097
 H   -2.2202914648   -0.2772604669   -0.0225658644
 H   -1.7996914889   -1.8996943087    1.8436922135
 H   -1.2540866107   -2.9244439064    0.5262679275
 H    0.8074165748   -2.5231420923    2.1517766369