14

 C    0.0973225168    1.5058303030    0.0026022268
 C    0.0675928815   -0.0014002202    0.0404115945
 O    0.0656377996   -0.6470821218    1.0647312423
 C    0.0388702777   -0.7291681619   -1.2858167091
 C    0.0105680439   -2.1286274920   -1.3262522272
 N   -0.0149197274   -2.7939821396   -2.4767857562
 N   -0.0131180972   -2.0945186978   -3.6115177366
 C    0.0142306120   -0.7650589445   -3.5307400622
 N    0.0408030121   -0.0290813109   -2.4146950433
 H    0.9732507682    1.8539410407   -0.5538069290
 H   -0.7758227850    1.8889064193   -0.5348783377
 H    0.1160536444    1.8903852479    1.0221711377
 H    0.0085829711   -2.7137226985   -0.4141182715
 H    0.0146650724   -0.2352329337   -4.4787855485