19

 C    0.4294976752    0.6696847342    0.6460516355
 O    0.1121295449   -0.5373754855   -0.0122179890
 C    0.4477999595   -0.5327529720   -1.3762626210
 C    1.9405644142   -0.8950787952   -1.6435887358
 C    1.5388699525   -2.3930319420   -1.8263726416
 C    1.6932880648   -3.2301161694   -0.5792465444
 O    2.0309952345   -4.3879613143   -0.5928341461
 C    0.0629484193   -1.8836746562   -2.0249873216
 O   -1.0028871945   -2.5573844739   -1.4230257565
 H    1.5092530977    0.8810865012    0.6375710548
 H   -0.0920300368    1.5240656562    0.1880402575
 H    0.1003391757    0.5658734476    1.6822048904
 H    0.0562577228    0.3720561873   -1.8623936988
 H    2.3328728596   -0.4583789245   -2.5643966610
 H    2.6298129303   -0.6736081385   -0.8255897759
 H    1.9751567581   -2.9366357524   -2.6664611386
 H    1.4585234903   -2.7047924961    0.3692820155
 H   -0.1046548934   -1.7224978876   -3.0997951968
 H   -1.1511070047   -3.3806800489   -1.9000669066