18

 C   -0.0016392264    1.6418690076    0.3369209330
 C   -0.0115403887    0.1536516837   -0.0546884710
 C   -1.3798367752   -0.4119516455   -0.1842941598
 C   -2.0816350131   -0.9398801245   -1.2017773100
 C   -1.7432208506   -1.1760404045   -2.6312007396
 N   -3.3327305559   -1.2817518282   -0.6664630185
 C   -3.3940802544   -0.9648373719    0.6700055203
 O   -4.2885068048   -1.1071790932    1.4590508647
 O   -2.1620720428   -0.4170146381    0.9653969341
 H    1.0244209923    2.0014004529    0.4573718708
 H   -0.4920144755    2.2511096478   -0.4283666391
 H   -0.5313849310    1.7950566582    1.2806566356
 H    0.5132350255    0.0090318525   -1.0045474487
 H    0.5438025980   -0.4203314101    0.6989123851
 H   -1.8108232248   -2.2396465040   -2.8906260443
 H   -2.4203727241   -0.6315032502   -3.3005006114
 H   -0.7251198057   -0.8442704777   -2.8431607478
 H   -4.1021578128   -1.7086481447   -1.1510825933