17

 C   -0.0527429990    1.5090488206   -0.0101932343
 N   -0.0147538642    0.0598855523    0.0602243319
 C   -1.0680787505   -0.5976737121   -0.0920565553
 O   -2.3119868032   -0.0920864215   -0.3950472484
 C   -3.2978412449   -1.1197047274   -0.2682474462
 C   -2.5109531644   -2.4173253828   -0.4671099913
 N   -1.1891754443   -2.0029104448   -0.0081415059
 C   -0.2367672120   -2.9067808435    0.4293608178
 O    0.8706779391   -2.6569535077    0.8217052186
 H    0.4567279382    1.8410850227   -0.9227753515
 H   -1.0620837735    1.9368856807   -0.0027275274
 H    0.5124720749    1.9173687356    0.8340583487
 H   -3.7514885108   -1.0707403085    0.7291204791
 H   -4.0678229564   -0.9562202307   -1.0238349561
 H   -2.9013257048   -3.2458893887    0.1276749335
 H   -2.4916615959   -2.7179284632   -1.5221234768
 H   -0.6455617883   -3.9373194611    0.3793257737