23

 C    0.0683654884    1.5684834254   -0.1875876751
 C    1.5177746424    2.0566795048   -0.0354668729
 C    2.1608935853    1.8998894773    1.3478179915
 O    1.3550157944    2.4446106852    2.3808892108
 C    0.9165334465    1.5574982487    3.4078887138
 C   -0.5148681922    1.0882953862    3.2402607020
 C   -0.9387448762    0.1726937884    2.3666217921
 C   -0.0957342008   -0.5521651433    1.3558070836
 C   -0.1970130710    0.0583374980   -0.0667487954
 H   -0.5541125887    2.1035787564    0.5366100049
 H   -0.2766090535    1.8840966469   -1.1797913466
 H    2.1689053793    1.5522499343   -0.7634759919
 H    1.5371139670    3.1221216720   -0.2957071217
 H    2.3934172411    0.8479339860    1.5545102300
 H    3.1217006188    2.4355062990    1.3496125969
 H    1.6009188532    0.7002158735    3.4777388594
 H    1.0034626596    2.1113161483    4.3492101569
 H   -1.2487283261    1.5684500104    3.8835230048
 H   -2.0055997203   -0.0463749371    2.3307362430
 H    0.9482380152   -0.5751519777    1.6791050373
 H   -0.4196322794   -1.5987376239    1.2950544244
 H   -1.2103861125   -0.1327839713   -0.4424138282
 H    0.4801549395   -0.4961218276   -0.7299693197