19

 C   -0.0561930674    1.5694563194    0.0463087122
 C   -0.0032501805    0.0325180052    0.0075670993
 C   -1.4266634403   -0.5544879652   -0.0274506296
 C    0.8130500698   -0.4785049832   -1.1751300044
 C    1.8088800542   -1.2913608543   -0.8179603982
 C    1.8787926017   -1.4045852007    0.6681564211
 N    2.1724191416   -0.0895759877    1.3148662460
 C    0.7764292810   -0.5565387267    1.1945905154
 H    0.9506814296    1.9810919736    0.1427619422
 H   -0.5130996662    1.9692009730   -0.8657606714
 H   -0.6553273764    1.9158319859    0.8959779347
 H   -1.9598300556   -0.2354130567   -0.9292840289
 H   -1.4021833071   -1.6487120931   -0.0210408643
 H   -2.0072573004   -0.2183770697    0.8398204008
 H    0.5847135572   -0.1713284949   -2.1909916118
 H    2.5098959725   -1.7730687410   -1.4891878211
 H    2.2186819066   -2.3106859138    1.1582750909
 H    2.4813327411   -0.2604263241    2.2709587936
 H    0.2342790286   -0.8144703159    2.0996429135