18

 C   -0.0503159941    1.4381189220    0.0112154884
 C    0.0018197792   -0.0691282733    0.0035257675
 O   -1.1759591589   -0.5736689814   -0.5618103609
 C   -1.1166005447   -1.9389009560   -0.9344423047
 C   -0.0116151596   -2.6947653133   -0.2436118590
 C    0.6311441476   -2.2567859744    1.0156427751
 C    0.6685603548   -0.7296529472    1.1790260251
 C    1.3575869501   -0.6942944605   -0.1853210120
 N    1.3862169917   -2.2076609656   -0.2889595904
 H    0.8431173095    1.8586979870    0.4805617606
 H   -0.1229111425    1.8210673590   -1.0109870392
 H   -0.9283515231    1.7796602150    0.5679289736
 H   -2.0872168609   -2.3881521990   -0.6906633445
 H   -0.9767634371   -2.0232354646   -2.0249226452
 H   -0.0518003343   -3.7695767973   -0.4086137566
 H    0.9263930078   -2.9460397721    1.8002457647
 H    0.9168419021   -0.2246261906    2.1037182678
 H    2.2316474124   -0.1566071277   -0.5346732905