16

 C   -0.0315050501    1.5061896348   -0.1269312272
 C    1.2933222300    0.8005290581    0.0203266687
 C   -0.0214803894   -0.0051669831   -0.0653017120
 C    0.3745219797   -0.6816527068   -1.3538328178
 O    0.0490214642   -1.6275997653   -2.4176794290
 C    1.4237642981   -1.1103556854   -2.7479128067
 C    1.8801734650   -1.0563997157   -1.2823843772
 N    2.1451440415    0.4454803654   -1.1803172937
 C    1.1033151372    0.3156202347   -2.2734873261
 H   -0.3875773133    2.0304359623    0.7549682775
 H   -0.2972567717    1.9974114046   -1.0556705628
 H    1.8446809639    0.8884334612    0.9479835527
 H   -0.4119906398   -0.5577782854    0.7788391769
 H    1.8754716249   -1.5004748967   -3.6569194792
 H    2.3727913061   -1.8033052461   -0.6615536714
 H    0.7071516837    1.1509543535   -2.8464648029