20

 C   -1.6767825932   -0.3370507076    2.2245258491
 C   -0.7911027682   -0.7764223450    1.0850083413
 O   -0.3517444840    0.2210699273    0.1610327612
 C    0.6424129318   -0.4530498649    0.9433920776
 C    1.4132711219    0.3689854508    1.9357021313
 C    2.2158284736   -0.3422692859    3.0652997574
 C    3.4427365822    0.3859496340    2.5222013372
 C    3.6614682158    0.0565241972    1.1041414343
 N    2.6517863772    1.0852570829    1.4268867437
 H   -1.3247757490    0.5872389914    2.6857504030
 H   -2.6948080446   -0.1644212249    1.8600058549
 H   -1.7255274051   -1.1170439273    2.9921561271
 H   -1.1190306701   -1.6995787500    0.6008967238
 H    1.2389377323   -1.1604365812    0.3645352592
 H    0.7585328827    1.1417095748    2.3396178913
 H    1.9059145399   -0.0261273147    4.0625020709
 H    2.2635635793   -1.4359062750    3.0441964791
 H    4.1739777688    0.9198764771    3.1199545706
 H    4.5307111284    0.4808413145    0.6116560714
 H    3.3599323303   -0.9137639736    0.7167426056