15

 C   -0.0440123354    1.4924799719    0.0923948030
 O    1.2512764125    1.9253543728   -0.3333823676
 C    2.1161800668    0.8228126957   -0.6211025855
 C    1.2780494317   -0.3999310457   -0.3878271187
 N    1.6302228624   -1.6691139112   -0.5362998984
 C    0.6578388527   -2.5474553520   -0.2490113122
 C   -0.6121322414   -2.1537598101    0.1704520078
 N   -0.9590101837   -0.8664424997    0.3189070702
 C    0.0075465943   -0.0060706643    0.0318117392
 H   -0.2491866160    1.8571323753    1.1089120201
 H   -0.8140381069    1.9085410499   -0.5717123563
 H    2.4740306191    0.8892281889   -1.6577398368
 H    2.9962513120    0.8510350793    0.0369652057
 H    0.9004943030   -3.6007651408   -0.3569992704
 H   -1.3732187641   -2.8959060360    0.3939936544