17

 C    0.0516113793    1.2383117439    0.4009376431
 O   -0.1854374159    0.1796548244   -0.5357584412
 C   -1.2431001454   -0.5960699458   -0.2615335066
 C   -1.3844572285   -1.9248805264   -0.0273098805
 N   -0.4286203446   -2.9395050671    0.0074877228
 N   -2.7368749905   -2.2126159758    0.0990900308
 C   -3.3429626572   -1.0760980571   -0.0611324560
 C   -4.8016092184   -0.8005639921   -0.0039482731
 O   -2.5097688002   -0.0356783521   -0.3002948991
 H    0.9665685513    1.7372022412    0.0772877304
 H   -0.7769492522    1.9539626719    0.3978000278
 H    0.1823721728    0.8390286181    1.4139259375
 H    0.5000462567   -2.5961543381    0.2134089917
 H   -0.6910029101   -3.6742650776    0.6520565389
 H   -5.0415819890   -0.0874473977    0.7922922590
 H   -5.1616873793   -0.3739765548   -0.9461603098
 H   -5.3287001586   -1.7358347550    0.1866871842