19

 C   -0.9107781277    1.5562771758    0.2900038295
 O   -0.5896709850    0.2158824478    0.5903757234
 C   -1.2258858699   -0.7507275861   -0.2418382825
 C   -0.5439048032   -0.8762617412   -1.6080813195
 C   -1.2032747982   -2.0456603899    0.5217405409
 C   -1.4953617563   -3.3522757762    0.1736707269
 C   -1.3067935727   -4.0871014420    1.3633161840
 N   -0.9236174219   -3.3106820736    2.3739933073
 N   -0.8767082932   -2.0785815814    1.8351349935
 H   -0.4248499934    2.1776634870    1.0458881493
 H   -0.5460617831    1.8637344522   -0.6997437625
 H   -1.9968261440    1.7307560730    0.3298065047
 H   -2.2748324883   -0.4435345722   -0.3958892286
 H   -0.5972894065    0.0644626904   -2.1631522911
 H    0.5053055576   -1.1540658361   -1.4788367096
 H   -1.0365371238   -1.6464887460   -2.2081979029
 H   -1.8050513152   -3.7189211153   -0.7914909901
 H   -1.4319667293   -5.1483989949    1.5215090753
 H   -0.5797611458   -1.2858094012    2.3785471119