17

 O   -0.1333122076    0.0091939512    0.1001937979
 C   -0.0738220448    1.2053526119    0.0395117252
 N   -1.0394893132    2.1900803675   -0.0960997399
 C   -0.1119859070    3.3041289444    0.1600445525
 C   -0.0352542715    3.8422535840    1.5851897719
 N   -0.1578175830    2.7748492793    2.5971543899
 C    1.1761704143    3.2927755517    2.2597376472
 C    1.9478788739    2.3890721721    1.3069417843
 C    1.0586618245    2.2672075643    0.0568619401
 H   -2.0102812219    2.1177383360    0.1772907641
 H   -0.1643072048    4.1034422347   -0.5829877174
 H   -0.4161538872    4.8331479031    1.8100713781
 H   -0.4730086913    3.1700558530    3.4789413323
 H    1.7176136743    3.8646778667    3.0077187006
 H    2.9056528184    2.8550568722    1.0526702912
 H    2.1598112439    1.4114124178    1.7508183606
 H    1.6199568829    2.2797572802   -0.8788001386