18

 C    0.0770932591    1.5191167503    0.0169759733
 C    1.2671892755    0.6343308922    0.0073359184
 N   -0.1165614809    0.0628340352    0.0036017021
 C   -0.3642359736   -0.5181195205   -1.3605880360
 C    0.9321551908   -0.4462366074   -2.1541305343
 C    1.5326119864    0.8636640462   -2.6390289367
 C    1.9219988927    0.3211816417   -1.3030918399
 O    2.9449861000   -0.6773214441   -1.3987851250
 C    2.0237547862   -1.5258219237   -2.1467652002
 H   -0.2254067646    2.0122500482    0.9379349989
 H   -0.1559466820    2.0912769614   -0.8779431641
 H    1.8605692600    0.4814311757    0.9028970368
 H   -0.6615087493   -1.5619595471   -1.2213755603
 H   -1.2035574708    0.0000807005   -1.8362135899
 H    2.2706272264    0.8400600827   -3.4363580071
 H    0.8679818923    1.7183449452   -2.6670682628
 H    1.7489559946   -2.4110100298   -1.5614467217
 H    2.4447222373   -1.8347437165   -3.1108905814