19

 C   -0.2026220518    1.5117495958   -0.1965974579
 C    0.1070476932    0.0333347566   -0.1026643785
 O    1.3493254503   -0.3182659345   -0.7562332559
 C    1.9256689756   -0.8245452415    0.4581301775
 C    0.6248120742   -0.5428607149    1.2602172865
 C    0.7136302640    0.3316809004    2.4093064381
 C    0.7944170805    1.0541416583    3.3699708511
 C    0.9049392749    1.9358400897    4.5247936242
 O    0.0574213183    1.4684163719    5.5677169696
 H    0.5978447297    2.1103548812    0.2459746123
 H   -0.3142706383    1.7981312129   -1.2469567161
 H   -1.1365882163    1.7414543121    0.3266459415
 H   -0.7215169127   -0.5566438955   -0.5162300483
 H    2.2046178310   -1.8818780152    0.3783041733
 H    2.7970933487   -0.2429662524    0.7798088174
 H    0.1003491604   -1.4613874602    1.5370123954
 H    1.9574570530    1.9689703695    4.8513977254
 H    0.6352687503    2.9609438074    4.2216853193
 H    0.1597119351    2.0712193285    6.3113631954