19

 C   -0.1724523683    1.5664411716    0.0535345069
 C    0.0121202733    0.0800815824   -0.0545751810
 C   -0.0426884320   -0.5805644699   -1.2147333642
 C    0.1756314319   -2.0616995898   -1.2342414570
 O    1.5185560171   -2.4396228462   -0.7412874123
 C    0.9254022872   -3.1058959713    0.3692873719
 C    0.0655327683   -2.1675694799    1.1794899020
 C    0.2915723403   -0.6570042367    1.2396617891
 C   -0.4807139672   -2.8224917785   -0.0706487580
 H    0.7097406988    2.0424952060    0.5009560261
 H   -0.3467916159    2.0250482412   -0.9233155450
 H   -1.0206975724    1.8118762687    0.7058776589
 H   -0.2263050446   -0.0582627890   -2.1490009051
 H    0.0166851344   -2.5095067475   -2.2177206453
 H    1.4176171316   -3.9923208824    0.7523932944
 H   -0.3011812147   -2.6162255993    2.0994360261
 H    1.3258357425   -0.4484319235    1.5483313842
 H   -0.3408770296   -0.2281466598    2.0282978596
 H   -1.3757749307   -3.4268960560   -0.1226822510