18

 C   -0.0082306329    1.3541645422    0.1160500047
 O   -0.1061622087   -0.0468598670   -0.0545405710
 C    0.6239273084   -0.5633989675   -1.1341816313
 C    2.2160836643   -0.5758259393   -1.0345425365
 C    2.1526903229   -2.1007269118   -1.1416578305
 N    1.3960922281   -2.5462248938    0.0493297319
 C    0.6647596662   -2.1006377984   -1.1568996870
 C    0.1715886833   -0.0339603281   -2.4239021870
 C   -0.2112722821    0.4034497637   -3.4766615270
 H    1.0315983584    1.6718720547    0.2801648270
 H   -0.4093021369    1.9004979061   -0.7479298537
 H   -0.5960237756    1.6011765368    1.0025690209
 H    2.6929998692   -0.0723228083   -1.8752760264
 H    2.6113840945   -0.2098053736   -0.0847730228
 H    2.8431892226   -2.7578047594   -1.6536877310
 H    1.3717846192   -3.5659455775    0.0345348265
 H   -0.0433762738   -2.7431745749   -1.6639495257
 H   -0.5504141871    0.7871148062   -4.4072877013