19

 C   -0.0286757671    1.5601000917    0.0017957689
 C    0.0915542462    0.0375535605    0.0160036264
 C    0.7529122826   -0.5360463822   -1.2562433947
 C    0.9412071527   -2.0500293496   -1.1590604043
 N    1.7636116141   -2.3522600644    0.0085932619
 C    1.1143541981   -1.9746672040    1.2633099193
 C    0.8025775763   -0.4779004702    1.2666834030
 O    1.0650008829    0.2254261504    2.2136343871
 H    0.9594106169    2.0267190920   -0.0595846777
 H   -0.6175099939    1.8914296535   -0.8591670724
 H   -0.5048060763    1.9242927200    0.9145084337
 H   -0.9184293938   -0.4029185500    0.0737552758
 H    0.1399226593   -0.2853638391   -2.1290505737
 H    1.7336334407   -0.0667727472   -1.3977277934
 H   -0.0526831311   -2.5396954208   -1.1223741759
 H    1.4538931891   -2.4252719358   -2.0505696962
 H    2.0050793776   -3.3364648631    0.0306875967
 H    0.1547489719   -2.5061111764    1.4362637604
 H    1.7731602539   -2.1868792255    2.1081831850