19

 O    0.2074097974    1.4188138988    0.0221353232
 C    0.0369276291    0.0259387540   -0.0120848690
 C    0.1712174829   -0.7659253971    1.3279816078
 C   -1.3152612358   -0.3828128271    1.6001717716
 C   -1.4308973490   -0.5223583536    0.0526384246
 C   -1.1645772257   -2.0427718013   -0.1561085281
 C    0.0349749115   -2.2170834753    0.8320114552
 C   -2.3891225880   -2.8659383063    0.1588716358
 O   -2.5826440478   -3.4589211674    1.1915840128
 H   -0.2265089626    1.7749331297    0.8039191358
 H    0.6459847506   -0.3208436141   -0.8528773661
 H    0.9691454575   -0.5476748749    2.0382700041
 H   -1.9086492962   -1.0536495704    2.2249232796
 H   -1.4547823159    0.6435583915    1.9485921879
 H   -2.2359722428   -0.0650112410   -0.5236284350
 H   -0.8940564255   -2.2308597470   -1.2020651768
 H    0.9350535678   -2.5753891236    0.3254198801
 H   -0.2204845394   -2.9147963823    1.6324258464
 H   -3.1603252881   -2.8669056025   -0.6457204898