25

 C   -0.1431437622    1.5665915106    0.0522591256
 C   -0.0142933838    0.0421658008   -0.0092869160
 C    0.7498155663   -0.4935941383   -1.2346865379
 C    2.1731261107    0.0662161143   -1.3245231436
 C    0.7361173378   -2.0442071407   -1.2776693199
 C    0.3802654328   -2.3821440231   -2.7357161720
 C   -0.2541015800   -3.7540300455   -2.9478122877
 C   -0.5227797849   -1.1935125498   -3.0804256437
 O    0.0570339626   -0.0728687130   -2.4361519956
 H    0.8253924119    2.0550466770    0.1972748437
 H   -0.5794160126    1.9476337152   -0.8750813402
 H   -0.7889692338    1.8665757814    0.8833093279
 H    0.4756832461   -0.3349989279    0.8982851434
 H   -1.0170942767   -0.4028852775   -0.0244124069
 H    2.7233168470   -0.1079862316   -0.3935659901
 H    2.7202247347   -0.4117791792   -2.1426743879
 H    2.1547200964    1.1410063817   -1.5205930153
 H    1.6904063594   -2.4729087456   -0.9602173539
 H   -0.0392374144   -2.4366729697   -0.6087627708
 H    1.2867471934   -2.3055033109   -3.3495807064
 H   -1.1650556383   -3.8624742405   -2.3477887836
 H   -0.5242461824   -3.9109049357   -3.9977415402
 H    0.4312631363   -4.5577322617   -2.6601121844
 H   -0.5798914420   -0.9787261982   -4.1526671943
 H   -1.5497471442   -1.3780416523   -2.7179359803