19

 C   -0.0308041360    1.5622854423   -0.1148698824
 C    0.0351179651    0.0498692265    0.0070147856
 O   -1.2524701070   -0.5452997293   -0.0314460821
 C    1.0583623381   -0.6890980450   -0.8993291371
 N    2.3975165739   -0.1745411767   -0.5256663384
 C    1.7667926495   -1.2552782804    0.2801508153
 C    0.7989833211   -0.5684133778    1.2185057464
 C    0.9274964765   -0.0527892068    2.5943803938
 N    0.1324720749   -1.2653188388    2.3021702334
 H    0.9754986895    1.9845678515   -0.0963597990
 H   -0.5076661422    1.8542222577   -1.0601371679
 H   -0.6159580161    1.9919205763    0.7049334570
 H   -1.7595389785   -0.1108442176   -0.7252858202
 H    0.8598537918   -1.1267130980   -1.8702663002
 H    3.0729984196   -0.6196006845   -1.1468791818
 H    2.2427687454   -2.2173013982    0.4201083057
 H    1.8357643425   -0.2263231669    3.1650796323
 H    0.4060004770    0.8692882667    2.8411468861
 H   -0.8625472652   -1.0529896510    2.2675842935