20

 O   -0.2978431030   -0.0277709342    0.8260980068
 C   -0.2632293693    1.0490789601    0.2563078162
 C   -1.3525251112    1.3541743813   -0.7796820429
 C   -1.4596016606    2.6819672486   -1.5454116931
 C   -1.1963361141    3.9237671361   -0.6790501291
 C    0.2939443306    4.1770679347   -0.6075082386
 C    1.0387309329    4.4885411362    0.6619119422
 C    1.2038901043    3.1392964601   -0.0129197834
 N    0.6717268289    1.9831838266    0.6428118384
 H   -1.3303685147    0.5123282161   -1.4794904018
 H   -2.2731069615    1.2104447224   -0.2002588841
 H   -0.7673744827    2.6930470960   -2.3962425532
 H   -2.4665652032    2.7238103638   -1.9759200218
 H   -1.6928258192    4.8033501771   -1.1034376195
 H   -1.6190327732    3.7821069411    0.3221419675
 H    0.6937478577    4.6344090329   -1.5093066163
 H    1.8653185649    5.1895265863    0.6308385890
 H    0.4696354468    4.4911775884    1.5853875068
 H    2.1462565021    2.9674737960   -0.5307278959
 H    1.2471630444    1.6051134601    1.3857389727