27

 C    0.4178191865    1.5324670286   -0.3569467314
 C    0.2330813534    0.0309579459   -0.1216919769
 C   -1.2325710326   -0.4173943702   -0.2078175770
 C   -1.4224572668   -1.9155010350    0.0120434560
 C   -1.3151936852   -2.5447958850    1.4468402641
 C   -1.5178976750   -1.6188169918    2.6447335759
 C   -2.5489709620   -3.4337778753    1.1062688449
 C   -2.8364127497   -2.5700640065   -0.1576436981
 C   -4.0541174242   -1.6545219978   -0.0482006826
 H    1.4719579652    1.8215491121   -0.2971845529
 H    0.0478245429    1.8258620007   -1.3459309153
 H   -0.1311463139    2.1209745945    0.3867521250
 H    0.8230318592   -0.5307003031   -0.8583123660
 H    0.6438109395   -0.2387443719    0.8595816712
 H   -1.8296729772    0.1584824705    0.5102909590
 H   -1.6230955307   -0.1525023322   -1.2008350894
 H   -0.7210859881   -2.4425417781   -0.6465145867
 H   -0.3906538746   -3.1104943133    1.6004718660
 H   -2.4425597788   -1.0377597749    2.5684472822
 H   -1.5804368688   -2.2066838868    3.5675784764
 H   -0.6902050966   -0.9107552389    2.7603692316
 H   -2.2845164904   -4.4680896272    0.8706615618
 H   -3.3426511372   -3.4489403027    1.8606841221
 H   -2.9269325277   -3.1528442530   -1.0803636259
 H   -4.0448167895   -1.0581517089    0.8697917326
 H   -4.1161674764   -0.9604730000   -0.8934769337
 H   -4.9747481414   -2.2490873197   -0.0404205130