20

 C    0.0305308215    1.5971992874   -0.0656717586
 C    0.1002201829    0.0819393959   -0.0979698330
 C    0.7389274483   -0.7059978388   -1.2688802571
 C    1.2445238999   -1.6841182815   -0.1326649817
 C    2.3562095586   -0.7252504570    0.0679443007
 N    1.0670139300   -0.5843080746    0.8497632059
 C    2.1752895916   -0.1668155235   -1.3244932765
 C    3.1438994364   -0.3830877284   -2.4458473392
 C    2.7626420020    1.0233382728   -2.0156186220
 H    1.0047681513    2.0551463178   -0.2466781322
 H   -0.6703022835    1.9670021007   -0.8226561261
 H   -0.3260187083    1.9308890125    0.9142730379
 H   -0.8821719331   -0.3420521917    0.1382928455
 H    0.1969149405   -0.9536180681   -2.1809345490
 H    1.1181139865   -2.7366524406    0.0834843055
 H    3.2617599355   -0.8269949804    0.6520990465
 H    4.1423622267   -0.7346013770   -2.2048524697
 H    2.7640225428   -0.7458504745   -3.3958469872
 H    2.1294295230    1.6016660706   -2.6810024686
 H    3.5067646875    1.6133370585   -1.4892254511