17

 C   -0.0632650776   -1.2405506925   -0.1243124065
 C   -0.0418971563   -0.0411918803   -0.0373435845
 C   -0.0134793722    1.4073011233    0.0545844526
 C   -0.4412129353    2.0038322132    1.4024823232
 C    0.8170158216    2.1184736243    2.2655554093
 C    1.9789908848    1.5855174588    1.4358876292
 C    1.4125402619    2.0512513245    0.0797158118
 O    1.1073348505    3.4325741559    0.3040969547
 C    0.3189665057    3.3056877760    1.4750503389
 H   -0.0859894206   -2.2993064414   -0.2013269841
 H   -0.5907463231    1.8489623069   -0.7654683784
 H   -1.4312327542    1.8635391549    1.8127036173
 H    0.7838643388    2.0763755982    3.3452980846
 H    2.9277474788    2.0768795977    1.6671784508
 H    2.0973663791    0.5015482473    1.4892765616
 H    2.0243884118    1.9386960725   -0.8116024922
 H   -0.0520976435    4.2382402009    1.8747393314