16

 O   -0.1457468427    1.3088934311    0.0057565843
 N    0.0023237933   -0.0902086176    0.0019571210
 C   -1.1298759721   -0.6669006791    0.0092622731
 C   -2.5017952987   -0.0208685680    0.0206506159
 C   -3.4229558365   -1.2088730049    0.0253589503
 C   -2.7645040362   -2.3796216873    0.0182372042
 C   -1.2567587060   -2.1786360929    0.0073779495
 C   -3.3400174507   -3.6723045980    0.0200852845
 C   -3.7811204220   -4.7936953428    0.0217374348
 H    0.7689684104    1.6105092340   -0.0004199971
 H   -2.6275086113    0.6306232338    0.8963195337
 H   -2.6405363464    0.6338051907   -0.8506679497
 H   -4.5021288494   -1.1176638734    0.0335980863
 H   -0.7906921639   -2.6321195750   -0.8752982139
 H   -0.7775719805   -2.6354181073    0.8812826119
 H   -4.1863144074   -5.7750695233    0.0239690213