13

 O    0.0649824786    1.3423289188    0.2327544534
 C    0.0627588969    0.0122766269   -0.0185277790
 C    0.0540672206   -0.7837471835   -1.1094714914
 N    0.0566866661   -2.1416971871   -0.7360442013
 C    0.0666656999   -2.1521906451    0.5495170030
 O    0.0725869343   -3.2132167973    1.3457629814
 N    0.0712082706   -0.8442399943    1.0959112592
 C    0.0817789662   -0.5199264175    2.4310695529
 O    0.0884830373   -1.3590578728    3.3115050304
 H    0.0594338791    1.8171048680   -0.6046740736
 H    0.0460420089   -0.4950815753   -2.1483897025
 H    0.0799157268   -2.8890603908    2.2694607142
 H    0.0835712349    0.5624182299    2.6199081534