17

 O    0.1399443562    0.0391516367    0.2117620925
 C    0.1527942739    1.2257891241    0.3268299618
 O    1.0248917133    2.0106129087   -0.3535030741
 C    0.9016579976    3.3893505212   -0.1794446783
 C    0.0770618471    4.3405038413   -1.0321477523
 C    0.9525640460    5.4552259170   -0.3829732733
 C    0.5402611346    5.4494556992    1.1179164075
 C    1.1886345691    4.0693279739    1.1755801260
 C    2.0413867389    4.3526537824   -0.0466857864
 H   -0.5168717750    1.8091875667    0.9846807541
 H    0.3086757832    4.2122444494   -2.0926694205
 H   -1.0078081519    4.3933152548   -0.8860265209
 H    1.1357588981    6.3846633962   -0.9155627313
 H    1.1103280337    6.1794316062    1.6988577923
 H   -0.5269877994    5.5471462723    1.3476383731
 H    1.4593325294    3.4737146983    2.0383270115
 H    3.0983036550    4.2487451517   -0.2392043416