17

 O   -0.0470089639    1.4170694551   -0.0008082406
 C    0.0049266325    0.0200410222   -0.0131480889
 C    0.4321285333   -0.7178814825   -1.3187044490
 C   -0.9084871115   -1.5214117569   -1.2894775268
 C   -1.3363178813   -0.7653415618    0.0040672306
 C   -0.9214122595   -1.3735147450    1.3652151328
 N    0.3572902616   -2.1023027156    1.1635989943
 C    0.3712918109   -0.6345413030    1.3517863806
 H    0.8580220520    1.7499864881    0.0016784460
 H    0.5023247477   -0.0202805257   -2.1573183674
 H    1.3427622805   -1.3156169072   -1.2548994894
 H   -1.5612482820   -1.3234056113   -2.1422331238
 H   -0.7892013797   -2.5978812793   -1.1661210924
 H   -2.2793126229   -0.2199661468    0.0101716354
 H   -1.5704952847   -1.6356181333    2.1922282515
 H    0.6071514181   -2.5244085797    2.0572884291
 H    0.9330114689   -0.1737617473    2.1572404880