22

 C    0.0319299573    1.5912017501   -0.1865478302
 C    0.0817790521    0.0667302816   -0.0571036100
 C    0.6513471393   -0.3922890826    1.2884980608
 N    0.7405638412   -1.8574375222    1.3077423657
 C   -0.3998932929   -2.7105335041    1.8374464022
 C    0.6389925074   -3.8617604411    1.8833046992
 C    1.3098687455   -2.6019717592    2.4996172200
 C    0.0108322683   -2.4219716552    3.3279186692
 O   -0.1967662432   -1.1781282624    3.9403669829
 H    1.0333254435    2.0288533938   -0.1036346649
 H   -0.3843158512    1.8965255234   -1.1515937874
 H   -0.5869978133    2.0387947545    0.5992736510
 H   -0.9292696944   -0.3453101420   -0.1777157045
 H    0.6855510772   -0.3673295200   -0.8619218230
 H    1.6781846918   -0.0154525038    1.3913845252
 H    0.0710039872    0.0401265606    2.1097060701
 H   -1.3905065838   -2.7140010686    1.3785781569
 H    0.4377192286   -4.7061356149    2.5447802905
 H    1.0337452163   -4.1507079894    0.9118330317
 H    2.3441136322   -2.4724826569    2.8236130665
 H   -0.2125428115   -3.2390936379    4.0304191478
 H   -1.0738550175   -1.1815524536    4.3361619502