19

 C    0.1434332023    1.5252958090    0.1369359348
 C   -0.0087342704    0.0431116610    0.0132747659
 C   -0.1323640952   -0.7231823897   -1.1250078512
 N   -0.2421665701   -2.0250292765   -0.6636578242
 C   -0.1810902675   -1.9838716418    0.6983319403
 N   -0.0412037398   -0.7592437539    1.1388799279
 C   -0.1566288904   -0.3652726534   -2.5530607326
 C    0.4680120256   -1.2488833158   -3.6157530608
 C   -1.0281520760   -1.1004941252   -3.5531397364
 H    0.1511501219    2.0155002371   -0.8402934872
 H   -0.6749409790    1.9562925133    0.7241011440
 H    1.0761512010    1.7826350762    0.6508149966
 H   -0.3476808494   -2.8506898375   -1.2283326174
 H   -0.2442763347   -2.8763090626    1.3033931715
 H   -0.0577171722    0.7016220020   -2.7179824022
 H    1.0030311019   -0.7693208092   -4.4278579977
 H    0.9082973778   -2.1876080420   -3.2950949843
 H   -1.6158906207   -1.9372595124   -3.1894588213
 H   -1.5240710150   -0.5186834886   -4.3221006358