19

 C    0.0143256007    1.5543903333    0.1433499813
 N    0.0488665726    0.1112691402    0.1752622123
 C   -1.2021890449   -0.6614024505    0.2964960992
 C   -0.4858268002   -1.6319410745    1.2708296409
 N    0.0633140342   -2.8588722099    0.6703985438
 C    1.4226230820   -2.5836702209    0.1774691286
 C    1.9114885104   -1.3048139675    0.8799721290
 O    3.0529653563   -0.9467208176    1.0080302250
 C    0.6508715165   -0.5763602041    1.3422299683
 H    1.0352095830    1.9487799083    0.1402824531
 H   -0.4781080542    1.8908140757   -0.7751173878
 H   -0.5247363480    1.9962004831    1.0030722508
 H   -2.0132508856   -0.1007972332    0.7893464974
 H   -1.5746952888   -1.0904391026   -0.6396601543
 H   -1.0345569382   -1.8650079442    2.1826582954
 H    0.1050571989   -3.5809865481    1.3778783398
 H    2.1050219769   -3.4158796501    0.3650897282
 H    1.4214599455   -2.3989405904   -0.9047851519
 H    0.7770941429    0.0223996930    2.2508406107