14

 C   -0.0177840488    1.4214665380    0.0006387902
 C    0.0032775645   -0.0685966289    0.0089897864
 N   -0.0528798381   -0.7738378647   -1.1271175284
 N   -0.0062641862   -2.0459414183   -0.6423751132
 C   -0.0122381149   -3.3689158107   -1.0608736901
 C    0.0643479829   -4.0907010018    0.0785199290
 O    0.1177505688   -3.2629326480    1.1930494225
 C    0.0716394199   -2.0125962208    0.7031464079
 N    0.0818591927   -0.7937051885    1.1796980458
 H    0.8917919889    1.8224514964    0.4586411062
 H   -0.0930542992    1.7882021516   -1.0241713378
 H   -0.8665282113    1.7979411516    0.5798854467
 H   -0.0679773566   -3.6745028949   -2.0903472347
 H    0.0907155076   -5.1471809011    0.2747346995