21

 C   -0.4856432601    1.4518451387    0.0012439109
 C    0.0117669160    0.0134279542   -0.0124154996
 C    1.1912124223   -0.3818491375   -0.9161513354
 O    1.4939403317   -0.1024949018   -2.0423389898
 C    1.8673096991   -1.2003348909    0.1892279608
 C    2.9490489122   -0.3661085918    0.9355238645
 C    1.8515548124    0.2336203608    1.8613840973
 C    0.7628076851   -0.6602395102    1.1884335590
 C   -0.0537160196   -1.5530058155    2.0979474237
 H    0.3121753811    2.1564715297    0.2537012144
 H   -0.8621324858    1.7263539700   -0.9887641906
 H   -1.2984770253    1.5871137368    0.7221985284
 H   -0.8178045016   -0.6564068982   -0.2873154473
 H    2.0702435659   -2.2533323274   -0.0136105775
 H    3.6606949401   -0.9977767962    1.4712615546
 H    3.5133566442    0.3338031838    0.3146601014
 H    1.9980985079    0.0056208013    2.9200492944
 H    1.6964808991    1.3115119194    1.7726066120
 H   -0.7520827105   -0.9637275093    2.7049768891
 H   -0.6430546199   -2.2781447373    1.5251353734
 H    0.5866875158   -2.1135075384    2.7881109165