19

 N   -0.1332449737    1.2551365137    0.0449094733
 C   -0.4166618256   -0.0394197529   -0.3786911676
 O   -0.1028083473   -0.4578720171   -1.4757134547
 N   -1.0705021046   -0.8038485895    0.5718202783
 C   -1.1794325467   -2.2240642958    0.3941417611
 C   -2.3843854805   -2.9136719330    0.9815776749
 C   -2.2369118302   -2.7971244980   -0.5150159865
 C   -3.1592713679   -1.9148496572   -1.3109488908
 O   -4.3600692949   -2.6426723345   -1.5518930612
 H    0.1260727626    1.8597404244   -0.7199509503
 H   -0.7664164321    1.6816646103    0.7050547277
 H   -1.0043080568   -0.4878292607    1.5282784062
 H   -0.2347658598   -2.7638138588    0.4140414201
 H   -2.2474035792   -3.8786250006    1.4556027704
 H   -3.1319197257   -2.2812689560    1.4494086603
 H   -1.9412556864   -3.6998407692   -1.0407119870
 H   -3.3611618698   -0.9888473590   -0.7529065435
 H   -2.6652695528   -1.6327001561   -2.2512526584
 H   -4.8850004690   -2.1410276098   -2.1823987022