18

 C   -0.3076588780    1.3186600435    0.1042551753
 N   -0.1681372603   -0.1118314304   -0.1104195946
 C   -0.2106415199   -0.9654356264    1.0788276932
 C   -1.4931029012   -0.9040515597    1.7767548419
 C   -2.5418462290   -0.8397835613    2.3594743925
 C    0.1026953568   -0.6868064101   -1.3134589158
 O    0.2730963399   -1.8925387445   -1.4545706804
 C    0.2017645299    0.2083274139   -2.5580920199
 O    0.5066629073   -0.5755537306   -3.6709536753
 H   -0.5052506650    1.8366380214   -0.8326753342
 H   -1.1512043788    1.5018156477    0.7762759448
 H    0.5964099859    1.7466980991    0.5579292190
 H   -0.0040431522   -1.9826584618    0.7382909523
 H    0.5955090285   -0.6734634040    1.7668582683
 H   -3.4713942846   -0.8016795649    2.8720876292
 H   -0.7537851436    0.7387899394   -2.7001690632
 H    0.9733799832    0.9769998369   -2.3952620379
 H    0.5474473412   -1.4832914483   -3.3224250053