16

 N    0.0322188252    1.2256824839   -0.7280847713
 C    0.0232010645    0.2130065347    0.1730447917
 O    0.9934181025   -0.0523854606    0.8656920524
 C   -1.3014186900   -0.5475276448    0.2755403211
 O   -1.1236912516   -1.9724410205    0.3637570528
 C   -2.0009216628   -2.0387049418    1.5016397654
 C   -1.4125465407   -1.3294707728    2.6733919223
 O   -0.0883084883   -1.3146747269    3.0413298519
 C   -2.0911102712   -0.5035747067    1.5893116579
 H    0.8727033056    1.7720848107   -0.8295677078
 H   -0.7295345487    1.3875646863   -1.3627497305
 H   -1.9460352280   -0.3101653847   -0.5830426316
 H   -2.7519570073   -2.8214958616    1.4983534380
 H   -2.0578503571   -1.3971445749    3.5484871978
 H    0.4505984321   -1.0372574904    2.2758838900
 H   -2.9295951341    0.1574246699    1.7667856301