20

 C    0.0111856650    1.5349181518    0.0144507278
 C    0.0002347068    0.0158648632   -0.1654373851
 C   -1.3947687728   -0.5919665522    0.0188173341
 C   -1.3704444565   -2.1156150337   -0.0187798872
 O   -0.4503380271   -2.7723823802    0.4332062301
 N   -2.4772734131   -2.7013968743   -0.5808075261
 C   -2.6209845764   -4.1369467778   -0.6806337316
 C   -3.7283637115   -4.6724896028    0.2140002124
 O   -4.4477701644   -5.5906883030   -0.0763275137
 H    1.0182092825    1.9396614044   -0.1239628541
 H   -0.6475483192    2.0305789537   -0.7077311338
 H   -0.3263581877    1.8186427600    1.0176723506
 H    0.3767838356   -0.2440922653   -1.1621798565
 H    0.6766193068   -0.4628018310    0.5484217526
 H   -1.7940090781   -0.3024109707    1.0007735573
 H   -2.0946776780   -0.1951780093   -0.7271256275
 H   -3.1927588831   -2.1126802852   -0.9743437205
 H   -2.7972912714   -4.4680319971   -1.7090452625
 H   -1.6695414846   -4.5609139499   -0.3342523432
 H   -3.8186145527   -4.1338201904    1.1854399970