25

 C   -0.0178095955    1.7250653165   -0.0456124787
 C    0.0030414844    0.1936096432   -0.0702494857
 C   -1.3419089983   -0.5290681449   -0.0072443418
 C   -1.2377013259   -2.0346674391   -0.2446931701
 C   -0.3780652028   -2.7923158748    0.7505108626
 C   -0.9514588509   -3.2800992378    2.0577092062
 C   -0.5990281737   -4.2675164218    0.9717631333
 C   -2.4093146362   -0.0601157786    0.9526890093
 C   -2.5921265393    0.1360028296   -0.5348769098
 H    1.0054571490    2.1131856181   -0.0469475167
 H   -0.5250254609    2.1421684022   -0.9207772240
 H   -0.5114714477    2.1180017911    0.8491719787
 H    0.5209993523   -0.1320872993   -0.9837235353
 H    0.6229322607   -0.1576654952    0.7646202654
 H   -2.2467521147   -2.4669949659   -0.2354137189
 H   -0.8441411498   -2.2044590089   -1.2578737988
 H    0.6601593011   -2.4745704512    0.7873769713
 H   -0.3292998512   -3.2437794269    2.9452800399
 H   -2.0033342359   -3.0968856569    2.2496306883
 H   -1.4148959941   -4.7426771735    0.4360739876
 H    0.2661350561   -4.9057664756    1.1143804971
 H   -3.0139868305   -0.8104635951    1.4505659553
 H   -2.2203429684    0.8194730312    1.5583878607
 H   -2.5301523164    1.1466953870   -0.9210843976
 H   -3.3180191314   -0.4854020735   -1.0497015380