21

 C    0.0145410455    1.5115694598   -0.1574877387
 C    1.5435043451    1.5428590868    0.1410763453
 C    1.4233774464    0.1087829663    0.6736392045
 C    0.0071106480   -0.0251621745    0.0943460084
 C    2.4512681773   -0.9755048157    0.7776539123
 C    3.9286733258   -0.5764460905    0.7758241989
 C    4.0707512168    0.2789178883    2.0183523933
 C    2.9338363733    0.3441946005    2.7167778224
 C    1.8275423760   -0.3946005629    2.0469856551
 H   -0.5663428967    2.0589599124    0.5888512207
 H   -0.2972991004    1.8446226157   -1.1496858260
 H    2.1496721550    1.6070325196   -0.7693438516
 H    1.8994188809    2.3006765825    0.8427599554
 H   -0.7653949012   -0.4116980253    0.7657976273
 H   -0.0204163994   -0.6079656342   -0.8327489793
 H    2.1751582715   -1.9642240398    0.4260993021
 H    4.5859263328   -1.4555346086    0.8146986262
 H    4.2091189053   -0.0256607701   -0.1328230634
 H    4.9951925806    0.7847007298    2.2739859194
 H    2.7986350683    0.8923528779    3.6425910383
 H    1.0882313690   -0.9324511579    2.6330753694