18

 C   -0.0001173352    1.5383752885   -0.0694179360
 C    0.0096014325    0.0349392876    0.0474361215
 N    1.3425024044   -0.6401034610   -0.1081250970
 C    0.6331716780   -0.6680229818    1.1671679497
 C    1.1481573294   -0.2855969858    2.5693403003
 O   -0.1126341655   -0.8265535506    3.1195373183
 C    0.2853813590   -1.8272635991    2.1081824192
 C    1.7447075345   -1.7211823055    2.6923278242
 O    2.8736972481   -2.1065227849    1.9829758703
 H    0.8853560493    1.9668654131    0.4070077655
 H   -0.0033829734    1.8472366175   -1.1196825696
 H   -0.8903422067    1.9549544630    0.4129796598
 H   -0.8277998827   -0.4717149435   -0.4299180655
 H    1.2193160851   -1.5254740001   -0.5962088186
 H    1.5076482235    0.6673735559    2.9563158576
 H   -0.3646242664   -2.6899474358    1.9582876407
 H    1.8156618877   -2.0844372576    3.7185489900
 H    2.9011685084   -1.5993304196    1.1606915897