16

 C   -0.0364546012    1.4875589379    0.0799024109
 O    1.2938063964    1.9701139405   -0.1427659190
 C    2.0315813723    0.9260493272   -0.7702027062
 C    3.3981186640    0.5595890902   -0.2323813852
 C    3.5025987238   -0.7662890365   -0.0959902187
 C    2.2082050833   -1.5052561774   -0.4331264184
 C    1.2597474670   -0.3405212734   -0.4756112019
 C    0.0709392783   -0.0222158212    0.0172631884
 H   -0.3788615279    1.8374176882    1.0626957988
 H   -0.7274014342    1.9014113995   -0.6747437008
 H    2.1091634859    1.1484866838   -1.8518403719
 H    4.1933046485    1.2787096381   -0.0767646174
 H    4.4033648515   -1.2961615161    0.1949190387
 H    2.2970027746   -2.0257647016   -1.3981277829
 H    1.9337471248   -2.2626130169    0.3089627619
 H   -0.6863982370   -0.6872280122    0.4129004339