16

 N    0.1090154857    0.9659557854   -0.9990122617
 C   -0.0526738604   -0.1562576008   -0.1723666308
 C   -0.8367488275   -0.4329096694    0.9210988559
 N   -0.5167702045   -1.6676350836    1.4471744782
 C    0.4312897469   -2.1413757091    0.6748917683
 N    0.7530521591   -1.2632754360   -0.3275272521
 C    1.0898786257   -3.4533731519    0.7938388887
 C    1.2127753903   -4.3818992782   -0.3460019179
 O    2.3250153768   -3.5882214094    0.0727501539
 H   -0.1970362118    0.7995253388   -1.9531793943
 H   -0.4093914767    1.7561651132   -0.6362985708
 H   -1.6037829125    0.1884272219    1.3584513008
 H    1.5537377755   -1.3443971103   -0.9332345964
 H    1.0812356731   -3.8700317251    1.7987072529
 H    1.3059037819   -5.4509626620   -0.1606642157
 H    0.7748894083   -4.1075240634   -1.3043190990