20

 C   -0.1718736100    1.5433789550    0.0430932672
 C   -0.0119055463    0.0179000354   -0.0067917771
 C    0.5847828423   -0.5421696381   -1.2946474203
 C    2.0865446901   -0.4953451230   -1.4425069072
 C    2.8635464061    0.0679173315   -0.2636341432
 N    2.3347124834   -0.5756874842    0.9507624744
 C    1.5849625201   -1.7826068439    0.5407131819
 C    1.4145926095   -1.7705930058   -0.9685833115
 C    0.8655998953   -0.5910421662    1.0831047881
 H    0.7818505855    2.0613901103   -0.0861677518
 H   -0.8466195022    1.8875361495   -0.7477498311
 H   -0.5963762727    1.8593286370    1.0018158372
 H   -1.0109038960   -0.4255402731    0.1186766611
 H   -0.0124336132   -0.5053490731   -2.2000011432
 H    2.5065588244   -0.4265939661   -2.4405163580
 H    3.9253652630   -0.1931697984   -0.3473986301
 H    2.8013336814    1.1563858497   -0.1685475554
 H    1.7592520387   -2.7046455357    1.0834428033
 H    1.3892389761   -2.6844444095   -1.5463878358
 H    0.5173125246   -0.5303152113    2.1117031916