23

 C   -0.0152319779    1.3322225233   -0.2758206767
 O   -0.0971961439    0.0677546779    0.3418099987
 C   -1.3457312731   -0.5565604919    0.1831007729
 C   -1.5853959488   -1.2907931656   -1.1758126160
 C   -0.6593661954   -2.4071193701   -0.6151222074
 C   -1.3191850307   -2.0102316052    0.7475564921
 C   -0.6842068680   -2.3201066730    2.0816316024
 C   -2.7839872119   -2.4314214576    0.5099300658
 C   -2.9880721737   -1.8791433571   -0.9418189468
 H    0.9722498252    1.7412622802   -0.0481911785
 H   -0.1296818406    1.2699654327   -1.3678559156
 H   -0.7824119810    2.0213211598    0.1110429567
 H   -2.1505833980    0.1102407419    0.5351556337
 H   -1.3953361247   -0.8070526802   -2.1345316198
 H   -0.8124268831   -3.4285857921   -0.9775119124
 H    0.3955128476   -2.1376886173   -0.6551086294
 H    0.3128884087   -1.8758734792    2.1490094852
 H   -1.2857999945   -1.9232801771    2.9080830379
 H   -0.5896908294   -3.4017888606    2.2311042114
 H   -2.9080958993   -3.5168214666    0.5717991457
 H   -3.4663708927   -1.9765535938    1.2353868721
 H   -3.7750642158   -1.1203555898   -0.9956555636
 H   -3.2322279891   -2.6649190587   -1.6620944084