14

 O    0.1669878453    1.3159821096    0.1767855115
 C    0.1128231782   -0.0387601498    0.0590525476
 N    0.0410776037   -0.5777914846   -1.1446053198
 C   -0.0098603273   -1.9177300834   -1.2098950444
 C    0.0088090359   -2.7444327389   -0.0988569927
 C    0.0851455012   -2.1527610905    1.1654951892
 O    0.1064249617   -2.9129158125    2.2826435192
 C    0.1386229093   -0.7644903627    1.2484017457
 O    0.2134349321   -0.1868804824    2.4873094084
 H    0.1401520561    1.6667773700   -0.7234085878
 H   -0.0686158653   -2.3428991996   -2.2072107706
 H   -0.0338204342   -3.8225432010   -0.1878043034
 H    0.1611825324   -2.3198247189    3.0437655119
 H    0.2426155109    0.7698711247    2.3692313552