20

 C    0.6194293402    0.6671539984    1.2225473504
 N    0.2767638056   -0.6618325787    0.7366244536
 C    0.1926567585   -1.6789863695    1.7753259434
 C    0.4426974988   -0.9018190540   -0.6045607001
 O    0.8870555693   -0.0470230928   -1.3595405110
 C    0.0436700811   -2.2575544431   -1.1688876628
 O   -0.9880784095   -2.9817352688   -0.5477037433
 C    0.1957333794   -2.4262239117   -2.6607418544
 C    1.1579673058   -3.1109963261   -1.7261095748
 H    1.6427024338    0.6984027375    1.6223469185
 H    0.5492037403    1.3770081206    0.4007860091
 H   -0.0706814468    0.9473120460    2.0255363797
 H    1.1500225061   -1.7611255085    2.3096231164
 H   -0.5726989234   -1.3966196367    2.5084507319
 H   -0.0743424091   -2.6431738646    1.3550217905
 H   -1.8149229330   -2.5154370088   -0.7140224733
 H   -0.5546726391   -3.0445965586   -3.1395070662
 H    0.5432855932   -1.5644350649   -3.2144429927
 H    2.1685548718   -2.7259064079   -1.6575333105
 H    1.0500375573   -4.1790291979   -1.5745648143