20

 C    0.0334666389    1.6042594650   -0.1122373279
 C    0.0353047341    0.0740499498   -0.0594882928
 C   -1.3734020383   -0.5188071895    0.0562895225
 O   -2.2081833485   -0.0963799202   -1.0238751259
 C   -1.3935413698   -2.0573336498    0.1589776260
 C   -0.8369681987   -2.5915020913    1.4913232940
 C   -2.8295435302   -2.5331722538    0.0048788865
 O   -3.1961993250   -3.3730592234   -0.7745929735
 H    1.0452912183    1.9944685850   -0.2554652416
 H   -0.5954504830    1.9607700250   -0.9316028866
 H   -0.3603577080    2.0289274696    0.8176988023
 H    0.5094092688   -0.3328228434   -0.9645331349
 H    0.6449927107   -0.2679154483    0.7845309968
 H   -1.8626073753   -0.1027062115    0.9478612645
 H   -1.8584540703   -0.4797791507   -1.8369523937
 H   -0.8251027781   -2.4870736485   -0.6760441939
 H   -1.4196991138   -2.2150785672    2.3397895087
 H   -0.8737637041   -3.6843225163    1.5154227952
 H    0.2028136818   -2.2887489619    1.6383493711
 H   -3.5429984695   -2.0544945184    0.7159565233