21

 C    0.2136117419    1.5604302542    0.0995027815
 C   -0.0603404406    0.0594254760   -0.0416122423
 N    0.6343365044   -0.4770097963   -1.2053663098
 C    1.6574427326   -1.2040369588   -1.0649885065
 C    2.4330747840   -1.6928726827   -2.2753174014
 N    3.0460350537   -3.0158376988   -2.1341541508
 C    3.7657624070   -3.0975286064   -0.8649417837
 C    2.8690294355   -2.7632272011    0.3211198156
 O    2.1969018985   -1.5049151337    0.1618539767
 H    1.2711507315    1.7431706511    0.3145101510
 H   -0.0398535507    2.0862569100   -0.8255895412
 H   -0.3795545039    1.9853714826    0.9155707442
 H    0.2093532056   -0.4577416538    0.8869821115
 H   -1.1337662371   -0.0908603273   -0.2097963622
 H    1.7698573950   -1.6699010482   -3.1407661985
 H    3.2417081601   -0.9719758092   -2.4643491794
 H    2.3191889395   -3.7267890508   -2.1541739140
 H    4.1839841859   -4.1019857688   -0.7387078308
 H    4.6061448079   -2.3925694734   -0.9050519049
 H    2.1124334350   -3.5516110796    0.4520767338
 H    3.4357834443   -2.6785498652    1.2534184113