17

 O   -0.0835516021   -0.0138617478   -0.0575882681
 C   -0.0392258453    1.1852399185   -0.0537635809
 N   -1.0187042247    2.1550826479   -0.0696619693
 C   -0.1105050348    3.2986497319    0.0293157024
 C    1.0629523734    2.2769635862   -0.0112902910
 C    2.1957175340    2.3279289417    1.0682974093
 C    3.2149615161    2.4951758496   -0.0678638591
 N    3.0797300135    1.2823729487   -0.9038184779
 C    2.1386182346    2.4125254242   -1.0932199129
 H   -2.0247083204    2.0895882278   -0.0275619601
 H   -0.1623427741    3.9904047237   -0.8190893644
 H   -0.1924940359    3.8624964528    0.9651219323
 H    2.1045232583    3.2051813593    1.7130091317
 H    2.3209397187    1.4266079141    1.6719739413
 H    4.1315705158    3.0711380922   -0.0600199638
 H    3.7699347390    1.3498868511   -1.6520962652
 H    2.0333756238    2.8976346480   -2.0563854745