19

 C   -0.1096053775    1.6231359374   -0.0703082619
 C    1.4382595073    1.5274917008    0.0459286152
 O    1.3430178006    0.1423651908    0.4496071655
 C   -0.0455340363    0.0741326291    0.0522791053
 C   -0.2689404031   -0.6896934073   -1.2197922058
 C    0.6473380369   -1.0022111592   -2.1369000325
 C    2.1337936743   -0.6761837619   -2.1167722450
 C    2.4904514210    0.8030932618   -2.1447861105
 C    2.2009876646    1.7295696601   -1.2303613307
 H   -0.5818781479    2.1090390273    0.7855514602
 H   -0.5066553671    2.0244278055   -1.0022908399
 H    1.8798386021    2.1317542160    0.8478739727
 H   -0.6553040318   -0.3513905265    0.8587233175
 H   -1.3014544729   -0.9904127888   -1.3901944304
 H    0.3069356861   -1.5584258565   -3.0073952559
 H    2.5818924818   -1.1297872599   -1.2287342681
 H    2.5974714603   -1.1533632409   -2.9846145487
 H    3.0497938641    1.1281626589   -3.0191295384
 H    2.5222853975    2.7548879134   -1.4065558486