19

 C    0.1051537290    1.3167522801    0.1262766341
 O    0.0289934949   -0.0908961970   -0.0203581711
 C    0.6216046037   -0.5696709663   -1.1771873570
 O    2.0286106045   -0.3535204401   -1.1579072925
 C    2.7162655382   -1.4764119783   -1.6987854443
 C    1.7413465858   -2.6294665970   -1.6166772224
 O    1.1898496553   -2.7768016150   -0.3049184966
 C    0.4235190021   -2.0754013147   -1.2946541313
 C   -0.9200155400   -2.6326400336   -1.6619117207
 H    1.1415392511    1.6498886040    0.2492127535
 H   -0.3333957260    1.8319897385   -0.7421348794
 H   -0.4678280368    1.5738157328    1.0194885727
 H    0.1900058402   -0.0570090314   -2.0601384566
 H    3.0057648525   -1.3009189368   -2.7468154517
 H    3.6243823600   -1.6389647188   -1.1084602333
 H    1.8913348784   -3.5393532233   -2.1919376019
 H   -1.6581677890   -2.3538714232   -0.9034143393
 H   -1.2583175286   -2.2362969384   -2.6250789566
 H   -0.8793259353   -3.7223842217   -1.7237937857