16

 N   -0.0388149228    1.3264390352    0.0110449303
 C    0.0699458778   -0.0249062478    0.0030620869
 O    1.1269657366   -0.6329877421   -0.0096076399
 C   -1.2482304155   -0.7386548227    0.0120181394
 C   -1.3714717751   -2.0754976846    0.0094977963
 C   -2.7969665782   -2.5494419371    0.0196092967
 C   -3.6260000926   -1.2501507932    0.0294503770
 C   -2.5955904438   -0.1161758957    0.0241739800
 O   -2.8540943410    1.0717563042    0.0290548273
 H    0.8047652801    1.8749808811    0.0023631809
 H   -0.9529545212    1.7613580106    0.0172634410
 H   -0.5200693394   -2.7469675009    0.0008855085
 H   -3.0026094010   -3.1787542479   -0.8548248741
 H   -2.9887532918   -3.1831737410    0.8939994924
 H   -4.2785690971   -1.1485393649   -0.8425281479
 H   -4.2646558148   -1.1529629532    0.9121707952