22

 C    0.0497754492    1.5476279468   -0.1232649688
 C    0.0702929108    0.0599143946    0.1519744305
 N    1.2365153032   -0.8253895714   -0.0724912856
 C    2.5437159957   -0.1552681074   -0.2002769271
 C    2.8511621196    0.6264952062    1.1068468964
 C    1.7796269987    0.1541229455    2.1202444359
 C    0.7354611337   -0.6038469290    1.3072854101
 C    0.1131899463   -1.8243850802    1.9531545201
 O    1.0828460202   -2.8341047152    2.1820993876
 H    0.8403425990    2.1042246546    0.3809581108
 H    0.1303931060    1.7421189865   -1.1988986213
 H   -0.9076889917    1.9618033650    0.2097764643
 H   -0.8415915203   -0.4250473058   -0.1983197709
 H    3.2885233561   -0.9397016529   -0.3684202670
 H    2.5563189652    0.4896276302   -1.0853330026
 H    3.8623444863    0.4164284378    1.4659212870
 H    2.7998724890    1.7057885335    0.9439715439
 H    2.2075487071   -0.5456846833    2.8436902748
 H    1.3478315747    0.9867191733    2.6848635638
 H   -0.3065919834   -1.5720062421    2.9334680701
 H   -0.7076372219   -2.1971819786    1.3227016656
 H    1.4790403464   -3.0095136682    1.3196968424