18

 C    0.0021004009    1.5257639173   -0.1278063734
 C   -0.0644695503    0.0137847486    0.1164728834
 N   -1.4234125404   -0.4825433742    0.0141708696
 C   -1.8072366346   -1.1062425304   -1.0180043264
 N   -3.0982103253   -1.5786455695   -1.2073609765
 C   -3.1837200785   -2.4713915523   -2.3463744826
 C   -1.8318573417   -2.2689148495   -3.0394665942
 O   -1.4700400600   -2.7095168974   -4.1010138040
 N   -1.1033823580   -1.4728895345   -2.1813213460
 H    1.0171780073    1.9024285367    0.0352533267
 H   -0.2955482504    1.7716497359   -1.1525544037
 H   -0.6773055745    2.0479751402    0.5514863491
 H    0.6447160476   -0.4983090076   -0.5574756077
 H    0.2906952914   -0.1963069245    1.1328115034
 H   -3.6430617934   -1.7312756191   -0.3746944721
 H   -3.2897698792   -3.5309728486   -2.0752491644
 H   -3.9973914668   -2.2156604156   -3.0333858913
 H   -0.1655408443   -1.1753065556   -2.3910495198