19

 O    0.7865006777    1.3555273767    0.0422155158
 C    0.1048802811    0.1250019365    0.0181751994
 C    0.4000740918   -0.6314783946   -1.2963707913
 N    0.1509358517    0.2896993764   -2.4028149034
 C    0.7619401420   -0.0900202816   -3.6547647841
 C    0.2000026286   -1.1868716718   -4.5341977762
 C    0.0926465527    0.2675361275   -4.9452071309
 C    0.5093909068   -0.6854402014    1.1770612091
 N    0.8043413977   -1.3560674557    2.0697688947
 H    0.7924836698    1.6297341208   -0.8907892533
 H   -0.9865553712    0.2772134471    0.0991580758
 H    1.4614416295   -0.8975085570   -1.3106192305
 H   -0.1799680475   -1.5648717923   -1.3398606267
 H   -0.8472971380    0.4271445762   -2.5297558737
 H    1.8444065767   -0.0004055621   -3.6208661424
 H    0.8880343695   -1.8304311082   -5.0712766586
 H   -0.7097437000   -1.6792741330   -4.2061301960
 H   -0.8873843709    0.7326173348   -4.8964038511
 H    0.7071146520    0.6284726919   -5.7618847166