19

 C    0.1538359707    1.5437711406   -0.0638099711
 C    0.0974127933    0.0894219051   -0.0405410600
 C    0.0399568635   -1.1143492472   -0.0203210641
 C    0.0271803673   -2.5686686364   -0.0009841768
 O    0.8852108008   -3.1158925522   -0.9853496925
 C    0.1212238370   -3.2059149748    1.4191480130
 O   -1.2553590364   -3.6144629583    1.3730230442
 C   -1.3700141418   -3.2647839707   -0.0255312548
 C   -2.6221574154   -2.4807138492   -0.3394729716
 H    1.1443479740    1.9082391618    0.2295358124
 H   -0.0642384704    1.9351835048   -1.0633022465
 H   -0.5762963077    1.9752323482    0.6294139764
 H    1.6264489896   -2.5124854032   -1.1004279728
 H    0.8149442827   -4.0566253621    1.4327945353
 H    0.3264838315   -2.5325901569    2.2573485428
 H   -1.2954201582   -4.1607142796   -0.6577909642
 H   -2.6681483010   -1.5645035668    0.2543455005
 H   -2.6463757112   -2.2146206122   -1.4012640418
 H   -3.5054187485   -3.0875903808   -0.1172134284