22

 C    0.0452312151    1.5217675660   -0.4466221991
 C   -0.0242344007    0.1842248054    0.2979776070
 C   -1.3961659902   -0.4468374793    0.2235800246
 N   -1.7229095038   -1.1640507322   -1.0322804367
 C   -1.6107087429   -1.9083953439    0.2134068933
 C   -0.6573597054   -3.0697952368    0.4633663693
 O   -1.6773363811   -3.7577301169    1.2237134612
 C   -2.6742149945   -2.7455237547    0.9324058888
 C   -3.3332833866   -2.2001158856    2.1837556101
 H    1.0486591030    1.9544728152   -0.3923678279
 H   -0.2106200132    1.3849867839   -1.5016713425
 H   -0.6548754479    2.2499645751   -0.0217192503
 H    0.7065059110   -0.5128629678   -0.1272165051
 H    0.2469767835    0.3246791421    1.3524955843
 H   -2.1953628394    0.1486373743    0.6672183999
 H   -2.7010814722   -1.0337839565   -1.2821596793
 H   -0.3668949462   -3.6200174943   -0.4403942615
 H    0.2342816172   -2.8622463177    1.0672899623
 H   -3.4348984472   -3.1452059967    0.2427712292
 H   -2.5874934844   -1.7775284967    2.8628832690
 H   -4.0613227775   -1.4212263195    1.9302930941
 H   -3.8657420866   -3.0000535832    2.7078189892