20

 C    0.1942093120    1.1950861746   -0.2010299136
 O   -0.0264517748   -0.0647496442    0.3943938053
 C   -1.3184270366   -0.5595771860    0.1860754174
 C   -1.6726585409   -1.1792527442   -1.2002608343
 C   -2.3764132331   -2.3333276088   -0.4342968518
 C   -2.2148853224   -3.7536180804   -0.9871758040
 C   -2.8116956885   -4.7650582325   -0.1153172789
 N   -3.2914709596   -5.5463433003    0.5882365032
 C   -1.5803435277   -1.9308827182    0.8377195596
 H    1.2154823851    1.4958387478    0.0435872771
 H    0.0892668573    1.1579882169   -1.2957887206
 H   -0.5032639061    1.9542041595    0.1863880126
 H   -2.0709321044    0.1871259711    0.4850036792
 H   -2.2671512451   -0.5955354393   -1.9063204639
 H   -0.7588545528   -1.5269260657   -1.6937252666
 H   -3.4411226397   -2.1186199630   -0.3055316789
 H   -2.6785079040   -3.8319383185   -1.9780537566
 H   -1.1514796999   -3.9881901645   -1.1157504883
 H   -0.6390630306   -2.4842207501    0.9119170689
 H   -2.0905114882   -1.9596685241    1.8015093942