18

 O    0.0237109354    1.3967158582    0.1982295544
 C    0.0595594422    0.0130410290    0.0872633461
 C    0.6974542531   -0.9902655306    1.0725293463
 C    0.0214019536   -1.8526501979   -0.0111826342
 C   -1.2148918416   -0.8687766391   -0.0247950641
 C   -1.7056034357   -0.8456389099   -1.4620090533
 C   -1.2868872610    0.2851578050   -2.3327746275
 N   -0.4418602942   -0.9279835844   -2.2342667742
 C    0.5264764761   -0.8864426900   -1.1256778307
 H    0.9304649496    1.7217765327    0.2238968190
 H    1.7908073987   -1.0194342622    1.1126399107
 H    0.2624574543   -1.0299189444    2.0742299308
 H   -0.0181228401   -2.9369223847   -0.0768458483
 H   -1.9298952204   -0.8869394616    0.7978939727
 H   -2.5156105794   -1.5063909472   -1.7585238214
 H   -1.7640346216    0.4011083011   -3.3021413427
 H   -0.9457887726    1.2027504488   -1.8687168644
 H    1.5718009433   -0.8999599929   -1.4381358892