15

 O   -0.0571893734    1.4534165527   -0.1464728364
 C    0.0145019019    0.0338173479   -0.0108104083
 C    0.4705017099   -0.4497207438    1.4260531889
 O   -0.6731299867   -0.9471874315    2.1692824480
 C   -1.6537276717   -1.0409046192    1.2383977556
 C   -1.3372963774   -0.5657404594    0.0046139126
 N   -2.4919088635   -0.7357143158   -0.7342959896
 C   -3.3990814055   -1.3080463657    0.1128058915
 N   -2.9182145144   -1.5129744341    1.3337348487
 H    0.8392803014    1.7860067165   -0.2656532366
 H    0.6995847397   -0.3689664926   -0.7711137035
 H    1.1956801548   -1.2662535397    1.3455113504
 H    0.9075844923    0.3801804981    1.9868760835
 H   -2.6567377447   -0.4738471337   -1.6909723124
 H   -4.3958009428   -1.5662305198   -0.2116094023