17

 C   -0.1514597105    1.4118944237   -0.2381076099
 N   -0.1090343639    0.1005605070    0.4083112666
 C   -1.1847834155   -0.7522863170    0.2220309085
 C   -1.2800128549   -2.0964434221    0.0134248541
 C   -2.6895812627   -2.4058839766    0.0416368847
 N   -3.2671768392   -3.6848144539   -0.0540323266
 C   -3.3286643654   -1.2278131401    0.2432421560
 O   -4.6404847449   -0.9000735739    0.2405133156
 O   -2.4136585275   -0.1945221970    0.3619250630
 H    0.7357071912    1.9770787448    0.0574120284
 H   -0.1908084116    1.3600613128   -1.3369908516
 H   -1.0324118044    1.9546877899    0.1091220803
 H    0.7624252698   -0.3855222731    0.2496676473
 H   -0.4649934280   -2.7893105211   -0.1255538733
 H   -2.8546122940   -4.2307112342   -0.8017414041
 H   -4.2651665121   -3.6182633547   -0.2183218432
 H   -4.9256170164   -0.6826963645    1.1375882942