22

 C   -0.0432662402    1.5417318998   -0.0692099345
 C   -0.1720395855    0.0346359233   -0.2093872138
 O    0.9058560464   -0.4374965147   -0.9984615740
 C    0.9044196878   -1.8292234284   -1.1813489543
 C   -0.0437400402   -2.4714232960   -2.2354990489
 N    1.1184517327   -3.0675290252   -2.9831746156
 C    1.9168785374   -1.9028168528   -3.4137987753
 C    2.0657426319   -2.3539646544   -2.0151684026
 C    3.3087565809   -2.9816805873   -1.4595299440
 H    0.9058194127    1.8021720431    0.4077955795
 H   -0.0755506102    2.0226106514   -1.0510032677
 H   -0.8603430568    1.9399447222    0.5397556041
 H   -0.1542498842   -0.4505101649    0.7812480091
 H   -1.1344068820   -0.2279686250   -0.6783217595
 H    0.8315744132   -2.3416465394   -0.2101805873
 H   -0.6896355650   -3.2588432552   -1.8418104525
 H   -0.6387733158   -1.7721486374   -2.8326650049
 H    2.7143923154   -2.1672837164   -4.1018115298
 H    1.4113436214   -0.9662712652   -3.6366609817
 H    3.9691197003   -2.2165251285   -1.0351731222
 H    3.0729479055   -3.7013201350   -0.6679906467
 H    3.8600351445   -3.5094023540   -2.2430028375