23

 C    0.0232781222    1.5274025224   -0.0186684351
 C    0.0123606141   -0.0046065648    0.0665354979
 C    0.5946620575   -0.4817448671    1.4039368447
 C   -1.4106667379   -0.5421913326   -0.1802282653
 C   -1.5011154514   -2.0551086336   -0.2424978056
 C   -1.9302869167   -2.8932067576    0.9423412671
 O   -2.3359306118   -2.1782512148    2.0866904743
 C   -2.8445788328   -2.7646746568   -0.2529415731
 O   -4.0230744414   -2.0350125168   -0.0882555224
 H    1.0367621107    1.9242590831    0.1020201631
 H   -0.3627828047    1.8781149584   -0.9817754156
 H   -0.6003410674    1.9670229330    0.7691513171
 H    0.6568050813   -0.3888795381   -0.7383700878
 H    0.6750329287   -1.5716299700    1.4451224791
 H    1.5949654478   -0.0653491703    1.5640880507
 H   -0.0402267674   -0.1687089679    2.2402927363
 H   -2.0751116626   -0.1591951895    0.6010919792
 H   -1.7858246310   -0.1333431918   -1.1271289529
 H   -0.7359246751   -2.5231375321   -0.8592416014
 H   -1.4069669677   -3.8242871487    1.1508753809
 H   -2.8583204502   -2.7752558556    2.6339358552
 H   -2.9884033582   -3.6098902240   -0.9192767714
 H   -3.9839242460   -1.6642907448    0.8041582850