21

 C    0.1332678141    1.5219280406   -0.4343486855
 C   -0.0494433619    0.0554030019   -0.1420911288
 C   -1.2081462520   -0.5781820167    0.0917424336
 C   -2.5600172609    0.0839424316    0.1837555518
 O   -3.2052429004   -0.1960111480    1.4272938739
 C   -1.2281301959   -2.0782142384    0.3157068697
 C    0.0656127429   -2.7252702606   -0.1665279253
 O    1.1887198551   -2.0271836929    0.3425541426
 C    1.2574626321   -0.7130525452   -0.1591610476
 H    0.6453709041    1.6597917826   -1.3956760598
 H   -0.8024290937    2.0789739231   -0.4809690962
 H    0.7714374027    1.9941352154    0.3239097524
 H   -2.5041256325    1.1650393357    0.0093701964
 H   -3.2323201492   -0.3325725379   -0.5770113046
 H   -2.6273960175    0.1310806779    2.1250392567
 H   -1.3895581065   -2.2992990928    1.3773718425
 H   -2.0838654612   -2.5176905594   -0.2141444930
 H    0.1569707953   -3.7564330981    0.1861622365
 H    0.0942151650   -2.7397139630   -1.2693884268
 H    1.6567246906   -0.7121549201   -1.1925179418
 H    1.9983700497   -0.1896423955    0.4587484534