23

 C   -0.5761680964    0.8118988821   -1.5541012540
 C    0.2468943291   -0.3320114564   -0.9823766248
 C    1.7590403414   -0.4178894593   -1.3434156402
 O    2.2370593959    0.8647365552   -1.7049998863
 C    2.0662106027   -0.8209743327    0.1402005271
 C    3.2809175681   -0.2036354243    0.8150089745
 C    0.6535873629   -0.3275455206    0.5035756959
 C    0.3243993841    0.7410434203    1.5055750810
 C   -0.1780519599   -0.6723983535    1.7001517567
 H   -0.0870044450    1.7724867540   -1.3799183296
 H   -0.7121930471    0.6950996359   -2.6343692767
 H   -1.5719683153    0.8397411051   -1.0971717682
 H   -0.2265895841   -1.2906069157   -1.2284777388
 H    2.0304035310   -1.1605941702   -2.1063131930
 H    3.1935391544    0.8117509036   -1.7951425799
 H    2.1111215522   -1.9149338397    0.2140153693
 H    3.2891776402    0.8818067847    0.6820140248
 H    3.2862343607   -0.4126979693    1.8903605735
 H    4.2137684241   -0.6083243108    0.4041502557
 H    1.1159748352    1.0961118132    2.1576268935
 H   -0.3927186690    1.5058457242    1.2257847989
 H   -1.2369617849   -0.8630715177    1.5512378637
 H    0.2726555596   -1.2725397481    2.4853500667