19

 C    0.1496835339    1.4838526984    0.1365008294
 C   -0.0359121010    0.0426812738   -0.3518268483
 C   -1.3695233342   -0.5709498178    0.0479877342
 C   -2.6099040444    0.0490249910   -0.5686904481
 C   -1.4170539666   -2.0359365587    0.3997093203
 N   -1.4383817760   -1.0288836787    1.4368219340
 C   -2.4827218041   -0.8572617096    2.3246832570
 O   -3.1149765127   -1.7508068221    2.8348914467
 H    1.1462781469    1.8535263963   -0.1212254891
 H   -0.5793313858    2.1667050944   -0.3107153404
 H    0.0423079563    1.5371382449    1.2246946884
 H    0.0538536894    0.0004310149   -1.4448344017
 H    0.7658452437   -0.5815172178    0.0562094131
 H   -2.5599202771   -0.0190037399   -1.6604980561
 H   -3.5164558656   -0.4647062002   -0.2366844656
 H   -2.7061129946    1.1075196196   -0.3082006977
 H   -2.3423278749   -2.5814634189    0.2303215497
 H   -0.5112875700   -2.6333406855    0.3342365173
 H   -2.6321248332    0.2100736759    2.5790879169