22

 C    0.1105592446    1.5288550900   -0.0471671511
 C    0.0133624435    0.0070563872    0.1084607713
 C   -1.4120551975   -0.5296349362    0.0242318855
 O   -2.2330033998   -0.0515535348    1.0795340939
 C   -2.1511809811   -0.4632278117   -1.3736412353
 C   -2.3155952018   -1.9911057115   -1.3148843879
 C   -3.4525660271   -2.7984058710   -1.8572876041
 N   -0.9267504721   -2.5196442154   -1.2665755140
 C   -1.5875793681   -2.0536497807   -0.0194665069
 H    1.1523607571    1.8601712267   -0.0079373111
 H   -0.3064839536    1.8635143302   -1.0036844761
 H   -0.4195275878    2.0567454282    0.7548294917
 H    0.6034011284   -0.4888436722   -0.6678335253
 H    0.4329071985   -0.2916117322    1.0773469581
 H   -2.2797771533    0.9074238644    1.0065212064
 H   -3.0988642522    0.0711564572   -1.2747616831
 H   -1.5858873316   -0.0857188620   -2.2300037103
 H   -3.4295359154   -2.8329426507   -2.9531949403
 H   -3.4130918603   -3.8297577023   -1.4887956408
 H   -4.4152528850   -2.3715367190   -1.5567168400
 H   -0.9934724797   -3.5378755443   -1.2676398916
 H   -1.7140223158   -2.7060180900    0.8368590410