15

 C   -0.1304409714    1.5245330887    0.0236183741
 N    0.1027624427    0.0864130080   -0.1054054489
 C    0.6710285656   -0.5381061801   -1.2564258947
 C    1.4053193613   -0.5283058821    0.1022798623
 C    2.5076852293    0.2378059418   -0.5777649266
 O    3.6741646329    0.4050424766   -0.3474035373
 C    1.7359020492    0.3447586488   -1.9317936109
 O    2.4442771262   -0.3276941815   -2.9454484587
 H    0.6743761388    2.1718452083   -0.3460160699
 H   -1.0502324272    1.7716777488   -0.5142874121
 H   -0.2862360877    1.7454176210    1.0829118601
 H    0.1845614767   -1.3884482311   -1.7203760995
 H    1.5162459945   -1.2927671719    0.8637005884
 H    1.3907201288    1.3310213167   -2.2652219571
 H    3.3757543602   -0.0948983219   -2.8447941591