19

 C   -0.0629525066    1.5397179311   -0.0079681476
 C   -0.0312502665    0.0355666179    0.0981936938
 N    1.2767151431   -0.6247764836   -0.1424039197
 C    0.6693772241   -0.6787630447    1.1812882547
 C    1.3284058741   -0.1733240829    2.4476553017
 N    0.2182670841   -0.1120716604    3.4426684276
 C    0.9127565813   -1.3983158508    3.1869842382
 C    0.2209379683   -1.9687889336    1.9336259300
 O   -1.1448682940   -2.2589974427    2.0193008141
 H    0.8550256050    1.9734651537    0.3973516690
 H   -0.1526720786    1.8568464130   -1.0524357376
 H   -0.9137154194    1.9487486835    0.5470871481
 H   -0.9106955499   -0.4787608308   -0.2880157085
 H    1.1456979951   -1.5115958657   -0.6252338292
 H    2.2209401358    0.4289674276    2.5523965597
 H    0.5971506965    0.2714037113    4.3075396736
 H    1.4049259183   -1.9381738376    3.9859865451
 H    0.7238935600   -2.8592629387    1.5431789357
 H   -1.5366722208   -1.5055645765    2.4820362314