14

 N    0.0925388947    1.4292679289    0.1018650334
 C   -0.0215239997    0.0434928186   -0.0356524740
 C   -1.1822690068   -0.6278330773   -0.1507060420
 O   -1.2001948713   -1.9867574830   -0.3788723970
 C   -0.0432633117   -2.7021339840   -0.4796426811
 N   -0.0103434985   -3.9523750930   -0.6931458849
 C    1.1808457521   -1.8898337288   -0.3133079139
 O    2.3217777231   -2.5773965755   -0.3856673572
 N    1.1948494564   -0.6220598478   -0.1109232390
 H    0.9307978006    1.6839274659    0.6072868326
 H   -0.7235674146    1.8782357831    0.4936497800
 H   -2.1769302620   -0.2113308335   -0.0991589914
 H   -0.9586601764   -4.3226892394   -0.7765463803
 H    3.0353625243   -1.9325757742   -0.2689826152