12

 C   -0.0008218678    1.4814568480    0.0366730784
 C   -0.0022411032   -0.0065121989   -0.0033864188
 N   -0.0841392708   -0.6828624544   -1.1258873108
 O   -0.0532822700   -2.0138426845   -0.7245817576
 C    0.0447640820   -1.9982689627    0.6079183392
 C    0.1021336679   -3.2704356325    1.3698351591
 O    0.0658321395   -4.3596022020    0.8612371295
 N    0.0809240478   -0.8018945495    1.1178027437
 H    0.9173484292    1.8456878303    0.5065440208
 H   -0.0742093944    1.8865641715   -0.9732690060
 H   -0.8426823724    1.8439665731    0.6336362711
 H    0.1821620222   -3.1032526384    2.4607322014