19

 C   -0.1204838910    1.4351766590    0.2521570077
 C    0.0215743156   -0.0658128591    0.0117054790
 O    0.7833378707   -0.6638425629    1.0813903364
 C    2.1299497876   -0.6398468422    0.9603477274
 C    2.7780620133   -1.3005683195    2.1529350013
 O    2.7140693284   -0.1570742759    0.0234033880
 C   -1.3245843247   -0.7542871869   -0.0479545279
 C   -1.6180576404   -2.0404044963    0.5908158579
 O   -2.0852357634   -0.8106271431    1.1561382775
 H    0.8623378850    1.9105887696    0.2602656509
 H   -0.7157349037    1.8902379687   -0.5457464687
 H   -0.6236358934    1.6137233558    1.2059791114
 H    0.5552527407   -0.2436925514   -0.9275330280
 H    2.4761452301   -2.3505656345    2.2086741208
 H    3.8612218330   -1.2321498703    2.0611136660
 H    2.4461182854   -0.8183750500    3.0763106669
 H   -1.9033493823   -0.4728543191   -0.9301720989
 H   -2.3892476696   -2.6843827471    0.1704152861
 H   -0.8387065512   -2.5404442148    1.1589715961