20

 C   -0.0803142604    1.5690118321   -0.2292906014
 C    0.0258155975    0.0575035192    0.0009596760
 C    0.8457208189   -0.6955105622   -1.0792624836
 C    1.6079253200   -1.8234103604   -0.3318519788
 N    2.9472347442   -2.0707398647   -0.8482784818
 C    3.3294278461   -3.2406908921   -1.4266485100
 O    2.6215663697   -4.2133292848   -1.5832442211
 C    1.5898425364   -1.3418395490    1.1029519847
 C    0.7384400224   -0.3343153620    1.2783428676
 H    0.9128290842    2.0312538649   -0.2535070069
 H   -0.5775101098    1.7883336685   -1.1799151542
 H   -0.6562559547    2.0523161205    0.5670681518
 H   -0.9961050093   -0.3497881114    0.0329608287
 H    0.2339002047   -1.0765226257   -1.9003720779
 H    1.5814326141   -0.0081735434   -1.5145650106
 H    1.0950656159   -2.7862337005   -0.4287023332
 H    3.6286558262   -1.3304271691   -0.7762196066
 H    4.3899456097   -3.2092619322   -1.7482574213
 H    2.1826558711   -1.8227930439    1.8731272737
 H    0.5246238633    0.1464269062    2.2276949751