19

 C   -0.1766757189    1.7086689347   -0.0102856179
 C    0.1190555681    0.2073502754   -0.0353685890
 O    1.0015256899   -0.0897032426   -1.1225692749
 C    2.1236500620   -0.8457161526   -0.6571946895
 C    1.6894148344   -1.4421464084    0.6833516156
 C    0.8056925208   -0.3322223512    1.2537827151
 O    1.6607263523    0.6159992179    1.8721121915
 C   -1.1899193083   -0.5430814362   -0.2952227982
 O   -2.0153044314   -0.7860397412    0.5476258642
 H    0.7494121356    2.2571389836    0.1749812017
 H   -0.5833190496    2.0304842191   -0.9729839848
 H   -0.9097424406    1.9456924258    0.7677938520
 H    2.3683621312   -1.5973829187   -1.4134727419
 H    2.9903238718   -0.1842768570   -0.5279756052
 H    1.0930354975   -2.3472981965    0.5292768521
 H    2.5211601904   -1.6760146471    1.3497007010
 H    0.0470539979   -0.6990501892    1.9530198316
 H    1.1160018314    1.2761054656    2.3115003973
 H   -1.3140071446   -0.8468642114   -1.3585305307