22

 C   -1.6319132841   -0.3373273557    0.0576691151
 C   -0.1544888708    0.0650689434    0.0461387228
 C    0.6750896363   -0.4081565684    1.2447093080
 C    1.7365245577    0.5732932531    1.7258817135
 C    1.1596742348    1.8028538142    2.4413311551
 N   -0.0245173534   -1.2109613241    2.2586593084
 C    0.9961355342   -1.8691764266    1.4055632118
 C    0.5694345953   -2.8794868436    0.4774169809
 C    0.2669959589   -3.7285350670   -0.3193356352
 H   -2.1402658633    0.0592594530    0.9403157976
 H   -2.1308992991    0.0551581478   -0.8343688949
 H   -1.7524018568   -1.4221070133    0.0690663849
 H    0.3245363225   -0.3102722415   -0.8669060156
 H   -0.0865558399    1.1576618293   -0.0088029295
 H    2.4250578753    0.0544755272    2.4051225020
 H    2.3384924981    0.8956322035    0.8666440464
 H    1.9629012438    2.4635045241    2.7808875493
 H    0.5057627046    2.3864020546    1.7864944354
 H    0.5725471528    1.5121559945    3.3189855243
 H    0.3722093436   -1.0461806500    3.1818337507
 H    1.9564721646   -2.0846583775    1.8710429956
 H   -0.0141065151   -4.4792511469   -1.0156320966