15

 N   -0.7577719857    0.0262921829    1.3665129586
 C   -0.2061491637    0.3909361325    0.4192680103
 C    0.5044672797    0.8709619855   -0.7621257659
 C    1.6489886706    1.7896870018   -0.4165513135
 C    2.5671390887    1.7239216158    0.7602109007
 C    1.8183371750    3.0120328529    0.4546890065
 C    2.4221365983    3.6485811417   -0.7910088324
 O    2.3005678334    2.3995179358   -1.5343925764
 H    0.8872250598    0.0090202935   -1.3237667464
 H   -0.2003589149    1.3913251819   -1.4206933118
 H    2.1903692359    1.1862011951    1.6243532936
 H    3.6389131735    1.6530077353    0.5950136312
 H    1.1432588035    3.4815759370    1.1565843594
 H    1.7943836787    4.4228050874   -1.2445752132
 H    3.4602175272    3.9948473211   -0.7341452307