25

 C    0.3589884239   -1.4556960654    1.1409708949
 C   -0.0487926883   -0.5143741818    0.0019513713
 C    0.6618053591   -0.7075896082   -1.3175540150
 C    2.0951183855   -1.1574262512   -1.4627982514
 C    1.0191416269   -1.9429396717   -2.1704779434
 C    0.8084102405   -3.4184453135   -1.9736779879
 C    0.6423288299   -1.1884997627   -3.4501183764
 C    0.2873681509    0.0748227802   -2.5986895916
 C   -1.1678249329    0.5130050832   -2.7190227008
 H    0.1844494335   -2.5045533615    0.8820701339
 H    1.4162079287   -1.3444734449    1.4004059152
 H   -0.2244829102   -1.2376266721    2.0408556233
 H   -1.1311597264   -0.6024651193   -0.1575712559
 H    0.1159578805    0.5232295149    0.3286012520
 H    2.8082023198   -0.5565966039   -2.0268423452
 H    2.5272474009   -1.6500664848   -0.5972608958
 H    1.0553121008   -3.7341538465   -0.9556108352
 H   -0.2299703621   -3.7083858583   -2.1737824802
 H    1.4454911381   -3.9947503434   -2.6570553812
 H    1.4363654179   -1.0820451554   -4.1984030242
 H   -0.2439156004   -1.6011647823   -3.9428622732
 H    0.9408751567    0.9379555357   -2.7811902123
 H   -1.8532950817   -0.3254101866   -2.5498462657
 H   -1.4174844994    1.2990821615   -1.9980619669
 H   -1.3675270223    0.9060166782   -3.7220244784