12

 O   -0.0223208167   -0.0421102570   -0.0004117073
 C    0.0171755213    1.1488594659    0.0091819660
 N    1.2078989665    1.9132728879    0.0018210773
 C    1.2715694712    3.2876725639    0.0125515659
 C    2.5940838266    3.6208376287    0.0000388623
 C    3.2696588540    2.3634516831   -0.0181826735
 N    2.4275945406    1.3364877163   -0.0170321605
 C    4.6796611848    2.1581765494   -0.0361578459
 N    5.8302585034    2.0433543745   -0.0503882230
 H   -0.8629601703    1.8161732287    0.0247870863
 H    0.3772209573    3.8899364363    0.0278718275
 H    3.0346971213    4.6034842222    0.0031136547