14

 O   -0.1217669104    0.0038553103    0.0538618303
 C    0.0124660345    1.1888265632   -0.1349425948
 C    1.2818598982    1.9128910418    0.0555322610
 C    1.3309569735    3.3697357607    0.3568123377
 N    1.7410476894    2.9671085240   -0.9811530145
 C    3.1326672057    2.3918930294   -0.8327596878
 C    2.6652820255    1.2830366083    0.1446309387
 H   -0.8282544461    1.8294930770   -0.4844104502
 H    0.3899931667    3.9123391349    0.3710760226
 H    2.0745162451    3.7240526019    1.0692517066
 H    3.4782525859    2.0186534324   -1.7974287569
 H    3.8520662221    3.1224426383   -0.4494622353
 H    3.1196553662    1.2496341331    1.1378693720
 H    2.6906689336    0.2837559446   -0.2907823592