21

 C   -0.0106414720    1.5481742403   -0.2321308357
 C   -0.0033125318    0.0527899831   -0.0075512845
 O   -1.1552165930   -0.5929916669   -0.4962133118
 C    1.2878776345   -0.7336218088   -0.0564000433
 C    0.5204090274   -0.5786807302    1.2493013467
 C    1.0890481914    0.2010705338    2.4138375107
 C    2.0282671453   -0.6685100285    3.2796408906
 C    2.6005015431    0.0594258443    4.4051771194
 C    3.0585957966    0.6856869399    5.3234704637
 H    0.8814500144    2.0306534414    0.1745041424
 H   -0.0413401063    1.7711189779   -1.3060708025
 H   -0.8932962664    2.0019772017    0.2299226581
 H   -1.1527626874   -0.5084492819   -1.4565430005
 H    1.2670139707   -1.7006261926   -0.5464106462
 H    2.2184734148   -0.1840312135   -0.1661703221
 H   -0.0481820506   -1.4600195992    1.5369224999
 H    1.6499970845    1.0725783955    2.0616260155
 H    0.2804734391    0.5863623705    3.0460218858
 H    1.4755820923   -1.5414826766    3.6507344328
 H    2.8333380832   -1.0665246763    2.6489355076
 H    3.4687747501    1.2269533060    6.1394192334