23

 C    0.4812081853   -0.7031663439    1.3047264027
 C    0.0301765342   -0.0151279933    0.0119009765
 C    0.8007471528   -0.4231982645   -1.2307348684
 C    2.3699048922   -0.3447511456   -1.3466637233
 C    2.0971338496   -1.2759213848   -2.5736139129
 C    0.9724741217   -1.9183316676   -1.6964644303
 C    1.2604256279   -0.3377727178   -3.4506884358
 C    0.4094241619    0.2258171234   -2.5874675592
 C   -0.6716365358    1.2308221769   -2.7917002964
 H    0.3727828031   -1.7906525450    1.2390661582
 H    1.5307892142   -0.4868392582    1.5289506954
 H   -0.1162706928   -0.3616842611    2.1556063208
 H   -1.0371621352   -0.2191086785   -0.1496295856
 H    0.1106543114    1.0732640011    0.1377483497
 H    2.8106261733    0.6356102668   -1.5462912815
 H    2.8923301636   -0.8471431195   -0.5255371337
 H    2.8828377489   -1.8701937970   -3.0390711576
 H    1.3556482279   -2.5774961869   -0.9101726507
 H    0.1305634097   -2.3822878904   -2.2171625027
 H    1.3591785326   -0.1882203802   -4.5172926481
 H   -0.7383805679    1.5256315548   -3.8430299724
 H   -1.6526431264    0.8425659044   -2.4883400782
 H   -0.5027446022    2.1385390869   -2.1978727165