18

 C    0.0089190554    1.5019005400    0.0254838120
 C    0.0121996710    0.0074104782   -0.0102928412
 C   -0.1881471533   -0.7802845798   -1.0704234145
 C   -0.1234516802   -2.2186461328   -0.7149170616
 C   -0.8803553577   -3.2722956768   -1.4096849898
 O    0.5236158138   -3.1258334899   -1.6267294196
 C    0.2789562618   -2.2775051006    0.7641223889
 C    0.2362093085   -0.8062605650    1.2498293925
 H    0.9668872005    1.8870144130    0.3978081448
 H   -0.1717930435    1.9326271878   -0.9627431538
 H   -0.7622494932    1.8789354521    0.7095352094
 H   -0.3813809740   -0.4459951181   -2.0835312298
 H   -1.1811232012   -4.1653172651   -0.8607033951
 H   -1.5164985796   -3.0203713237   -2.2588267743
 H   -0.3762410157   -2.9297745374    1.3467130253
 H    1.2897910593   -2.6896416992    0.8294900767
 H    1.1554629049   -0.5040694885    1.7669643670
 H   -0.5795728067   -0.6365235141    1.9652628532