19

 C    0.0314609854    1.4901972228    0.0045036873
 C    0.0352850945    0.0359041558   -0.0633572400
 C    0.0381202196   -1.1661526082   -0.1273309683
 C    0.0236668718   -2.6221299509   -0.1876308719
 C   -1.3539990393   -3.2358249172    0.1559127770
 O   -2.3277677444   -2.8508029847   -0.8149286398
 C   -2.9192301418   -3.9990190564   -1.4153862911
 C   -2.2380074665   -5.1734705203   -0.7720003509
 C   -1.3601840355   -4.7418262070    0.1251202551
 H    0.5184478062    1.8512409075    0.9174074830
 H    0.5608337267    1.9303865318   -0.8480457639
 H   -0.9906527562    1.8850506749   -0.0031974281
 H    0.3103987446   -2.9697642460   -1.1878026741
 H    0.7642606547   -3.0318768854    0.5130542436
 H   -1.6595135001   -2.8474728023    1.1406851570
 H   -4.0064078106   -3.9976860840   -1.2357654494
 H   -2.7740168854   -3.9709926181   -2.5067318190
 H   -2.4639246247   -6.2021110759   -1.0230815576
 H   -0.7211411189   -5.3452744862    0.7573928612