13

 N   -0.0260983085    1.3791445262    0.0101069633
 C    1.3024446310    1.7489689966   -0.0010030239
 N    2.1372056596    0.7255691501   -0.0146251486
 C    1.2971764159   -0.3478272019   -0.0119624916
 C   -0.0461510804   -0.0024815606    0.0030842617
 C   -0.8255236759   -1.1892165594    0.0045250646
 C    0.0976033742   -2.2199375973   -0.0099655466
 N    1.3870218461   -1.7156516193   -0.0200306858
 H   -0.8099285992    2.0078548444    0.0211399127
 H    1.5958418678    2.7879764194    0.0015676534
 H   -1.8973825958   -1.3066486384    0.0144694997
 H   -0.0681437008   -3.2853055056   -0.0139144505
 H    2.2301287160   -2.2611474543   -0.0312198486