17

 C    0.0327380807    1.5369632123    0.0634936873
 O    1.1789719609    0.6570753699   -0.0132683236
 C   -0.1181521649    0.0926536244   -0.0122771647
 C   -0.5603517241   -0.9813744049    0.9860279817
 O   -1.9826984910   -0.9781119690    0.7801599315
 C   -1.9695308005   -1.4356717827   -0.5894578838
 C   -1.3852669192   -2.8585187691   -0.4476795457
 C   -0.1150989367   -2.0776483012   -0.0781076985
 C   -0.5491707125   -0.9160563051   -1.0624602061
 H   -0.0946654705    2.0480605000    1.0164402326
 H   -0.1350279266    2.1504261094   -0.8203509507
 H   -0.2976527448   -0.9883764093    2.0416603503
 H   -2.9090948940   -1.2000437490   -1.0854691421
 H   -1.8592775566   -3.5166973201    0.2841886665
 H   -1.2661400004   -3.3626371383   -1.4104349193
 H    0.8913848961   -2.4842190478   -0.0231396612
 H   -0.3014207959   -0.8709926198   -2.1198425842