21

 C   -0.0165224999    1.5279086077    0.0504114128
 C   -0.0377970712    0.0191218059    0.0780898396
 C   -1.2605556566   -0.6539356280   -0.5262243331
 C   -1.0893940722   -2.1771983654   -0.6616724505
 C   -0.6790575780   -2.8424054185    0.6503467296
 C    0.7328878630   -3.3324310921    0.8591041948
 C    0.2636051524   -2.0795694926    1.5565099733
 C    0.7220292935   -0.7272762816    1.0985564040
 O    1.2187381261   -0.6142180566   -0.2432651470
 H    0.8889024329    1.9129187984    0.5268306253
 H   -0.0430076298    1.8961731585   -0.9813388686
 H   -0.8875023533    1.9379506217    0.5734283968
 H   -2.1267586754   -0.4177942242    0.1071084359
 H   -1.4676082666   -0.2156760142   -1.5107053183
 H   -2.0279754934   -2.6127777315   -1.0181648765
 H   -0.3396720089   -2.3729644480   -1.4332044216
 H   -1.4607924882   -3.4053930309    1.1506566858
 H    0.8930169145   -4.2202505300    1.4607520710
 H    1.4282176604   -3.2022745752    0.0370697836
 H    0.0944952175   -2.1416054774    2.6274718632
 H    1.3003303933   -0.1569007960    1.8272386999