20

 C   -0.1122753257    1.5370642905    0.0288270064
 C   -0.0290690947    0.0120977267   -0.0498272635
 C   -1.4013514836   -0.5522046493    0.3203874064
 C    0.7909631279   -0.6520995278   -1.1832769631
 C    2.0871866004   -0.1645677485   -0.4589429829
 C    3.1496021843   -1.2338133427   -0.5701546407
 C    2.4548482810   -2.3596061895   -0.4132892921
 C    1.0415787332   -1.8589382257   -0.2224040770
 N    1.1625690274   -0.6150316722    0.7251649278
 H    0.7997064516    2.0536163632   -0.2714982273
 H   -0.9212039573    1.8993858800   -0.6145821695
 H   -0.3456248831    1.8430285547    1.0544994726
 H   -2.1689472045   -0.1227033280   -0.3322559213
 H   -1.4774993082   -1.6371150892    0.2434251871
 H   -1.6513258619   -0.2733894360    1.3498804504
 H    0.5923566832   -0.6804322960   -2.2643379216
 H    2.3925626453    0.8780828838   -0.4605208273
 H    4.2085655677   -1.0729555500   -0.7118953157
 H    2.7785964487   -3.3901210832   -0.3889717276
 H    0.2616966682   -2.5749766908    0.0214248288