14

 N   -0.0629992047    1.2805787458    0.0119049499
 C   -0.0345230187    0.0265778836    0.0046945013
 O    1.0937164461   -0.7720649116   -0.0070554467
 C    0.7252172544   -2.1040950341   -0.0121836578
 O    1.4919654541   -3.0066526099   -0.0221895679
 O   -0.6207629165   -2.2034899641   -0.0040780142
 C   -1.1877683140   -0.9023931354    0.0069298729
 C   -2.4549028959   -0.6578027277    0.7713970596
 C   -2.4647140464   -0.6492981482   -0.7381825005
 H    0.8718204995    1.6866602080    0.0081594112
 H   -2.8830979050   -1.5172396452    1.2741453676
 H   -2.5241890295    0.2873421746    1.2973673544
 H   -2.5407621870    0.3017081691   -1.2525259310
 H   -2.8994774363   -1.5030425048   -1.2449765188