17

 C   -0.1169652901    1.3876699088   -0.0047636594
 O   -0.0434091550   -0.0341704430   -0.0121026656
 C   -1.2243660743   -0.6760992729   -0.0082371964
 N   -2.3871849903   -0.0444527509    0.0018324033
 N   -3.3148109331   -1.0570671024    0.0026908433
 C   -4.7242139140   -0.7509741199    0.0112575244
 C   -2.7195854156   -2.2683592523   -0.0069998850
 O   -3.4959074825   -3.3754016489   -0.0078768194
 C   -1.3512647111   -2.0854992099   -0.0143569914
 H    0.9151202270    1.7415802416   -0.0091858633
 H   -0.6480736692    1.7584637539   -0.8877634224
 H   -0.6375092496    1.7498415391    0.8880509097
 H   -4.9942837903   -0.1711137765   -0.8766363022
 H   -5.2832898534   -1.6869564952    0.0155340879
 H   -4.9823401642   -0.1699563511    0.9018470445
 H   -2.9243881555   -4.1490514299   -0.0140559763
 H   -0.5733591389   -2.8296032506   -0.0225413116