23

 C    0.1046513493    1.5535481342   -0.0292077074
 C   -0.0049458062    0.0278518434   -0.0341461346
 O    0.7439064381   -0.5217244760    1.0512338272
 C   -1.4584005090   -0.5003032325   -0.0287316197
 C   -2.2870323166    0.0752114464   -1.1866374704
 C   -1.4553831336   -2.0415667529   -0.0385919827
 C   -2.8074018993   -2.6830017439    0.3197809915
 C   -2.6876437475   -4.1841745008    0.4514848093
 O   -3.3477082849   -4.9885810158   -0.1540986009
 H    1.1546230051    1.8419121822    0.0687797053
 H   -0.2884168069    1.9997810988   -0.9460626230
 H   -0.4486940573    1.9828664666    0.8164876135
 H    0.4973485922   -0.3612708226   -0.9300755537
 H    0.4163119657   -0.1176528689    1.8627520157
 H   -1.9123851803   -0.1686334682    0.9198242395
 H   -3.2906519851   -0.3580930167   -1.2099196555
 H   -2.4047800056    1.1589283918   -1.1084480930
 H   -1.8120448751   -0.1431076625   -2.1507463283
 H   -1.1407130574   -2.3927475336   -1.0308182115
 H   -0.6940551896   -2.3842360054    0.6693735411
 H   -3.1391887102   -2.2955691152    1.2951963369
 H   -3.5882133596   -2.4668453391   -0.4139534594
 H   -1.9055605563   -4.5159434493    1.1755958201