14

 C   -0.0769356478    1.4857875023    0.0246139104
 C   -0.0404859749   -0.0198934349   -0.1482292254
 O   -1.3470794792   -0.5247554437    0.1606468303
 C   -1.4463892647   -1.9178140914    0.0826438702
 C   -2.7236905433   -2.3284700049    0.6923746768
 N   -3.7066941124   -2.6691881916    1.1903976976
 C   -1.3602913969   -2.4179855072   -1.3140207824
 N   -1.2467922271   -2.7784967610   -2.4048248790
 H    0.9069900215    1.9080549594   -0.1979864532
 H   -0.8081770823    1.9321632763   -0.6540651760
 H   -0.3468893169    1.7508559215    1.0501160199
 H    0.2280711729   -0.2943995326   -1.1774968044
 H    0.6943741542   -0.4819290815    0.5289211988
 H   -0.6357680532   -2.4091687508    0.6487868564