21

 C    0.0165988617    1.5420969929    0.0679364458
 C   -0.0629953452    0.0457809380   -0.0383109439
 C    0.2909859402   -0.7650094805   -1.3583038270
 C   -0.3789002609   -1.8851190493   -0.5161675439
 C   -0.6972022088   -3.3828834926   -0.2964121808
 C   -0.2517415094   -3.1536678609    1.2052460415
 C    0.5836049845   -1.9531169523    0.6502023369
 O    0.6932368018   -0.5830183148    1.0464615092
 C   -1.3625711355   -0.7865533663   -0.0035814039
 H    1.0526457323    1.8813464063   -0.0261564258
 H   -0.5769852101    2.0151198463   -0.7193635494
 H   -0.3629563819    1.8755801446    1.0388080580
 H   -0.2792934933   -0.3902325127   -2.2111799891
 H    1.3454259760   -0.8921416002   -1.6171001621
 H   -1.7218904874   -3.7123796162   -0.4781224902
 H   -0.0083913181   -4.0534233198   -0.8176187363
 H   -1.0892516420   -2.8567538367    1.8373608468
 H    0.3035789643   -3.9568787016    1.6932238763
 H    1.5781458020   -2.3245845218    0.3714259085
 H   -1.8423699048   -0.8975761694    0.9706418730
 H   -2.0906962555   -0.5048069132   -0.7683027537