19

 O    0.2517161605    0.5905703475    1.0586235142
 C   -0.0595811293    0.3596830701   -0.3113387393
 C   -1.4259168024   -0.2930170548   -0.3588518271
 C   -1.9271074779   -0.9939346070   -1.6472879352
 C   -1.0219103014   -2.2531975130   -1.3549730574
 C   -1.8172999905   -3.4785240222   -1.7781661593
 C   -3.0669037562   -3.1950814979   -1.4059515484
 C   -2.9538503967   -1.8157765958   -0.7795695493
 C   -1.6048756551   -1.7823440229    0.0335472478
 H    1.0995677454    1.0422856646    1.1014311582
 H   -0.0899749910    1.3073614197   -0.8743008289
 H    0.7029097487   -0.2748300481   -0.7867271705
 H   -2.1579018591    0.3779903643    0.1055666141
 H   -2.1214847610   -0.5477805133   -2.6274719272
 H    0.0498374193   -2.2209779222   -1.5451917948
 H   -1.4236209750   -4.3585495917   -2.2671982186
 H   -3.9702218755   -3.7798722860   -1.5077754004
 H   -3.8349510457   -1.3146603750   -0.3765744766
 H   -1.4220283171   -2.2461499462    1.0058430789