17

 O   -0.0636029278    1.3193832564    0.0598347896
 C    0.0574399854   -0.0532533416    0.0571207838
 C    0.7735338428   -0.9724264769    1.0639612756
 C    0.0928330031   -1.9342713747    0.0548874228
 C    0.1013363610   -3.3619744198    0.0443547249
 C    0.1140354774   -4.5655190349    0.0437946108
 C   -1.1741611333   -0.9961913233   -0.0894570719
 C   -1.0903969465   -1.0011034283   -1.6285790369
 C    0.3820962614   -0.9861568888   -1.1742527595
 H    0.8146065665    1.7068605365   -0.0223568190
 H    1.8685883439   -0.9689278408    1.0597017713
 H    0.3829395748   -0.9884758145    2.0858451105
 H    0.1250461662   -5.6271219670    0.0429780498
 H   -2.0439563879   -1.0224159787    0.5679570104
 H   -1.4377820339   -1.9052156617   -2.1353606418
 H   -1.4514195896   -0.1023292753   -2.1344479562
 H    1.2997521165   -0.9985936766   -1.7649926940