15

 C   -0.1105374986    1.5229083121   -0.3111869303
 C   -0.0200979073    0.0898827350   -0.0948177952
 C    0.0335731357   -1.1023049694    0.0872190369
 C    0.1243361393   -2.5264198604    0.2996794079
 O   -0.8516251417   -3.2234949337    0.5187965239
 C    1.5005272743   -3.1139110616    0.2424077582
 C    1.8767014509   -4.0100216247    1.3858635032
 N    1.5950766514   -4.5694748687    0.0719910725
 H    0.8756618949    1.9681011238   -0.4770987552
 H   -0.7347430745    1.7425431197   -1.1841726367
 H   -0.5668541786    2.0165281844    0.5536659124
 H    2.2659625584   -2.5208673953   -0.2470062685
 H    2.9160649671   -4.0443885996    1.6991070058
 H    1.1393058821   -4.1317233133    2.1743486797
 H    0.6370774667   -4.9235241982    0.0702288056