16

 N    0.8047443285    0.7648145971    0.0401657486
 C   -0.0549699158   -0.1871447112    0.4737424922
 O   -0.0634070648   -0.5795063453    1.6337758711
 C   -1.0378610065   -0.7160411812   -0.5678627210
 C   -1.0757770663   -2.2338919458   -0.6844423159
 N   -1.0783984720   -2.7671071348   -1.8351628574
 N   -1.1481203625   -2.8835270600    0.5601550849
 C   -1.2591000895   -4.2339808845    0.7596927994
 O   -1.3771627056   -5.0749454795   -0.1056417841
 H    1.4792160151    1.1340516817    0.6913485358
 H    0.8579344764    1.0409427725   -0.9242029336
 H   -2.0298495064   -0.3687442218   -0.2505572842
 H   -0.8497363726   -0.3251008281   -1.5677845303
 H   -1.1532257940   -3.7824519107   -1.7531154129
 H   -0.9658084953   -2.2847559140    1.3639817991
 H   -1.2362376688   -4.4852513444    1.8369508484