16

 N   -0.0499289835    1.3270667454    0.3907411094
 C   -0.0213585062    0.1133316265    0.0127164291
 C   -1.3219727831   -0.6331953583   -0.2026181202
 C   -1.2357966768   -1.7204045720   -1.2471131208
 N   -0.5077523555   -1.3738783895   -2.4656965291
 C    0.0857256001   -2.3505917036   -1.5146902139
 C    1.2987437712   -1.8625057804   -0.7891209237
 O    2.3512268850   -2.4630709388   -0.7688196392
 N    1.1441228202   -0.6469396614   -0.1398885667
 H    0.8898940614    1.7017329858    0.5377291615
 H   -1.6078925558   -1.0870107760    0.7556218304
 H   -2.0876657604    0.1037512842   -0.4531355907
 H   -2.1101451742   -2.3613403894   -1.3314754192
 H   -0.8806253026   -1.8755293292   -3.2675392137
 H    0.1479159252   -3.3935463290   -1.8038810067
 H    2.0090509050   -0.2572180542    0.2124066634