15

 N    0.0725225585   -1.1132880683   -0.0117274916
 C    0.0325679153    0.0419933027   -0.0011731975
 C   -0.0373578209    1.4798269380    0.0056353035
 C   -0.7118816946    2.4247510718    1.0523710113
 C    0.0145790464    3.3348771999    0.0167408535
 N    1.2014497832    2.3722428372   -0.0124917929
 C   -0.5807625923    2.4420195517   -1.0807622143
 C   -0.6855363374    2.4253730516   -2.5226563960
 O   -1.8486056305    2.4714672515   -1.6365156457
 H   -1.8038064523    2.4436424404    1.0848190911
 H   -0.2639674359    2.3952243671    2.0487486570
 H    0.1500409257    4.4139264184    0.0279903438
 H    1.6162788024    2.3477138523    0.9246915697
 H   -0.5127705004    3.3343905222   -3.0937267380
 H   -0.5660262572    1.4908871136   -3.0655575040