19

 C    0.1285258388   -1.1686906548   -0.2400455010
 C    0.0792508182    0.0310385444   -0.1493206665
 C    0.0397245868    1.4572053761   -0.0511741950
 C    0.2912509692    2.1516350257    1.2763542791
 C    1.3343601242    2.2613834519    0.2035515595
 C    2.7080216951    1.5851691000    0.3132275016
 C    3.6228653854    2.3586146487   -0.6784250058
 C    2.8074571491    3.5767356665   -1.0437682438
 C    1.5653160785    3.5120231209   -0.5648936793
 H    0.1580151088   -2.2270506167   -0.3165854090
 H   -0.6777183114    1.9398174113   -0.7091753465
 H   -0.3170159506    3.0205351778    1.5066787841
 H    0.5116726237    1.5148568034    2.1265649325
 H    3.0885350843    1.6878893018    1.3345487862
 H    2.6548509079    0.5166137549    0.0928758727
 H    4.5882382952    2.6203430970   -0.2302254671
 H    3.8544479797    1.7647478369   -1.5727755112
 H    3.2004369804    4.3837625110   -1.6519429609
 H    0.7858410468    4.2514512832   -0.7156834997