22

 C    0.3000841212    1.3481596548   -0.1589487535
 O    0.0903598776   -0.0330991858   -0.0042099342
 C    0.7835747043   -0.5759155526    1.1012098942
 C    0.4914780548   -2.0661300675    1.1554333665
 C    1.1854686982   -2.8714998552    0.0200570252
 C    2.2911144928   -3.2910158308    1.0256827454
 C    1.3444267481   -2.8781677066    2.1883877008
 C    1.9257066796   -2.2109356874    3.4281399085
 H    1.3635068359    1.5865147570   -0.3240858670
 H   -0.2724949239    1.6724629359   -1.0316857043
 H   -0.0422514781    1.9168305096    0.7209023114
 H    1.8666197016   -0.3862662968    0.9963909818
 H    0.4613308829   -0.0816120705    2.0340770212
 H   -0.5920240384   -2.1944184385    1.2356301396
 H    0.5814155438   -3.7216070279   -0.3076319955
 H    1.4865882173   -2.3012275099   -0.8613584247
 H    2.6366317081   -4.3277553762    1.0018354048
 H    3.1687292042   -2.6387665416    0.9682484322
 H    0.7589239592   -3.7516319231    2.4972569952
 H    2.5328035678   -1.3351112079    3.1754975437
 H    1.1390064893   -1.8847911356    4.1179013602
 H    2.5714191739   -2.9090499333    3.9727866586