18

 C   -0.0459645337    1.5516733547   -0.0810256900
 C    1.5078283185    1.4868387699    0.0224116955
 C    2.1046762101    1.1928798287   -1.3402337483
 C    2.6885052464   -0.1566179937   -1.4529422327
 C    1.9606928540   -0.9485136305   -0.3537217657
 C    1.3971969177    0.0673998730    0.6900302024
 C   -0.0328150752    0.0176718834    0.0515424402
 C    0.6495533874   -0.7198362572   -1.1467653938
 N    1.3789259207    0.1666818664   -2.1495590168
 H   -0.4962529079    2.0164149510    0.8005280171
 H   -0.4693328758    1.9976430242   -0.9857199427
 H    2.0312249882    2.2863167789    0.5505145176
 H    2.4760996194    2.0094811544   -1.9518627296
 H    3.5826995173   -0.4244714583   -2.0047072956
 H    2.3140080150   -1.9246151438   -0.0284416967
 H    1.6001405947   -0.0246869304    1.7567369873
 H   -0.8795625901   -0.5095510413    0.4943465998
 H    0.1061462934   -1.5095868993   -1.6656468780