19

 O   -0.0708624645    1.4318684422    0.0679395732
 C    0.0010655723    0.0194216625    0.0186335441
 C   -1.4277275708   -0.5226924462    0.0695765860
 C   -1.4694158536   -2.0198728744   -0.2509263072
 C   -0.9408412398   -2.2953560144   -1.6676701252
 C    0.2888340840   -1.4971599935   -1.9768485390
 C    0.7209104694   -0.4658942299   -1.2333674218
 C    1.9647285028    0.2050494110   -1.6317590777
 O    2.4708975412    1.1397920993   -1.0393247344
 H    0.8373751366    1.7515883617   -0.0339810889
 H    0.5589224326   -0.3630508195    0.8926690240
 H   -1.8553621545   -0.3157926008    1.0548605952
 H   -2.0214475468    0.0392915377   -0.6618191919
 H   -0.8538824120   -2.5671194290    0.4745276980
 H   -2.4881387368   -2.4065173449   -0.1499150175
 H   -0.7323177430   -3.3629756751   -1.8116828131
 H   -1.7077172890   -2.0490509484   -2.4183864317
 H    0.8566118982   -1.7771187532   -2.8644784608
 H    2.4475836435   -0.2101959753   -2.5433788915