17

 O   -0.0873406815    1.4388502803    0.0895604529
 C    0.0189238033    0.0296528230   -0.0526091421
 C   -1.3892530778   -0.5368616028    0.0354527395
 C   -1.4554564643   -2.0796492814   -0.0559880127
 C   -2.6327772617   -2.4617865791    0.8559899289
 C   -2.7535613918   -1.2921570192    1.8420930466
 O   -3.4033827792   -1.2562164751    2.8633139869
 N   -1.9903807909   -0.2767019082    1.3310056694
 H    0.7979326808    1.8120792666    0.1248497536
 H    0.4636968091   -0.2483067512   -1.0214167869
 H    0.6339156239   -0.4100112240    0.7474868039
 H   -1.9830412318   -0.0740455354   -0.7679328865
 H   -1.5680023745   -2.4223213640   -1.0864044213
 H   -0.5246101840   -2.5046998624    0.3358464171
 H   -3.5765983719   -2.5304714281    0.3029810659
 H   -2.5012129739   -3.4033866366    1.3914090480
 H   -2.0046776538    0.6476563875    1.7323631469