17

 C    0.1055826637    1.5669082120   -0.3204355428
 C    0.0125420526    0.0936613365   -0.0103818249
 N    1.2529794003   -0.6894870478   -0.0425479546
 C    0.5396046510   -0.5429748540    1.2414016240
 C    1.2100925496    0.1484570461    2.3492265252
 C    1.1314837060    0.0167391863    3.6994390378
 N    1.9817593965    0.9312210819    4.3093527049
 C    2.5233278685    1.5578901164    3.3188517257
 O    2.1128652125    1.1474833617    2.0954397960
 H    1.0261218091    1.9934643149    0.0789770288
 H    0.0948479691    1.7253695955   -1.4041088751
 H   -0.7470695107    2.1050994549    0.1072246959
 H   -0.8808030843   -0.3914080370   -0.4053315798
 H    1.0971516380   -1.6172623317   -0.4269617620
 H   -0.0306231268   -1.3963994708    1.6033909422
 H    0.5290258292   -0.6689308153    4.2740095056
 H    3.2538153158    2.3510374004    3.3415284129