14

 O   -0.1700821459    1.4733949078   -0.1436510025
 C    0.0351173166    0.0744100953    0.0023845799
 C   -1.3566112913   -0.6552434945   -0.0611543604
 N   -1.4932131859   -1.3692065835   -1.3728521264
 C   -0.2170000301   -1.2512107860   -1.9304870827
 C    0.6804072383   -0.5594287883   -1.1938766388
 O    1.8600675659   -0.5748550499   -1.7856070359
 N    1.6285648659   -1.3552367847   -3.0276979733
 N    0.4225174467   -1.7207954790   -3.0396710927
 H    0.6884797567    1.9108549441   -0.1327293488
 H    0.5421837384   -0.1462883984    0.9496382822
 H   -1.4158181885   -1.3946690136    0.7420153807
 H   -2.1540278951    0.0769965367    0.0768477722
 H   -2.2288791516   -0.9857367660   -1.9556207635