17

 C    0.2349695314    1.4799178596   -0.0246734083
 O    1.2333924395    0.4561041533   -0.0186981910
 C   -0.1477235097    0.0652299580   -0.0011863271
 C   -0.6316923736   -0.6749018939    1.2536179988
 C   -1.5157613478   -1.8248408801    0.7240030681
 C   -0.9770207798   -2.0915327224   -0.6953484444
 C   -0.6797911875   -0.6784722755   -1.2251413443
 H    0.1683042944    2.0748351201    0.8864530077
 H    0.1543707825    2.0503450991   -0.9506701944
 H    0.2493400155   -1.0631290830    1.7752242598
 H   -1.1602380682   -0.0198436301    1.9516892788
 H   -1.4904341752   -2.7082709669    1.3672871525
 H   -2.5611621512   -1.4989699530    0.6630071713
 H   -0.0477815568   -2.6712152979   -0.6396289128
 H   -1.6766055747   -2.6504776024   -1.3224278697
 H   -1.6097912022   -0.2073804290   -1.5683742294
 H    0.0377205834   -0.6445989360   -2.0482996955