14

 N    0.0979789209   -1.1075143643   -0.0833815341
 C    0.0197056441    0.0457503958   -0.0135644449
 C   -0.0603795594    1.4618489923    0.0583846333
 C   -1.0651672324    2.2462190061    0.8975055218
 C   -0.5224086017    3.6198116945    0.4509367677
 O    0.8664991538    3.5386064632    0.7619420192
 C    1.1752953879    2.3940638181    0.0085152636
 C    0.2166690005    2.3983924627   -1.1435078663
 O   -0.5761880778    3.5450620693   -0.9716998059
 H   -2.0988883063    2.0871233757    0.5879292640
 H   -0.9490994307    2.0819732878    1.9695513800
 H   -0.9625795894    4.5403710120    0.8206591314
 H    2.2050630078    2.0714243336    0.0177487406
 H    0.3935563927    2.0795974232   -2.1592251105