12

 C   -0.0250093326    1.4882525103    0.0103211691
 C   -0.0122697677   -0.0112527380    0.0021675822
 N   -0.0059604623   -0.6320154317   -1.1859302055
 C    0.0246508646   -1.9609490679   -1.1241660242
 N    0.0484070011   -2.6980186419   -0.0128972468
 C    0.0374640911   -1.9731882020    1.1065481249
 N    0.0077003189   -0.6449681977    1.1832198963
 H    1.0066597221    1.8605704670    0.0016953131
 H   -0.5232680569    1.8695788732   -0.8822081942
 H   -0.5053363661    1.8600030857    0.9165615369
 H    0.0317556989   -2.4972504970   -2.0712083586
 H    0.0554835488   -2.5198054400    2.0475285168