18

 C   -0.0243569005    1.4383168716    0.2470000911
 C    0.0765014361   -0.0303629742   -0.0481108220
 C    0.2439910063   -1.0086046747    1.1012600987
 C    1.4474952797   -0.7658156217    1.8934133609
 C    2.4484138555   -0.5425827112    2.5262408988
 C    3.6361341634   -0.2962249456    3.3433564795
 O    3.3605988779    0.3942898164    4.5549212505
 N    0.0095395322   -0.5679774510   -1.2045326143
 O   -0.1912553095    0.3772247923   -2.2212923125
 H    0.3136212104    2.0282416778   -0.6055296728
 H   -1.0668464392    1.7142303503    0.4494949343
 H    0.5670880536    1.6899613728    1.1304400451
 H   -0.6352234847   -0.9397492409    1.7588637439
 H    0.2518972284   -2.0219800522    0.6875162300
 H    4.1497205134   -1.2520666689    3.5350043498
 H    4.3443194615    0.3362525369    2.7966087248
 H    2.6623062792   -0.0894110479    5.0082469005
 H   -0.1656897438   -0.1713652796   -3.0122557962