13

 O    0.1006876310    1.3348518503    0.1896001093
 C    0.0716030635   -0.0069677285   -0.0007231276
 C    0.0929259811   -0.8068848777   -1.1122859105
 C    0.0378886283   -2.1671757424   -0.6375113215
 C   -0.0137539424   -2.1201217730    0.7405630256
 N    0.0073984014   -0.7957382668    1.1143327767
 C    0.0371016321   -3.3340473306   -1.4356556651
 C    0.0373956781   -4.3173111317   -2.1326300239
 H    0.1424490482    1.7634437185   -0.6705139175
 H    0.1411420035   -0.4913270474   -2.1419925899
 H   -0.0630362948   -2.9116888702    1.4682936835
 H   -0.0190293214   -0.4403867415    2.0542874359
 H    0.0373280213   -5.1872966090   -2.7404882752