19

 C   -0.0084404593    1.4494617731    0.1036778865
 C    0.0057400836   -0.0639209585    0.0301567197
 O    0.7043418744   -0.5524271373    1.2013084828
 C    0.8178396275   -1.8761791480    1.3109409909
 O    0.3839025284   -2.6792439450    0.5158471539
 C    1.5997021436   -2.2930549116    2.5446596693
 O    1.5203176489   -3.6935856078    2.7010410551
 C    3.0814951187   -1.8820081652    2.4296522796
 O    3.8132498186   -2.4214056345    3.5035237006
 H    1.0088309875    1.8501931111    0.1149296769
 H   -0.5293148634    1.8551122782   -0.7684883443
 H   -0.5251039346    1.7923700580    1.0042123830
 H   -1.0028968563   -0.4875253606    0.0264439802
 H    0.5225574411   -0.4305925277   -0.8616741747
 H    1.1705071904   -1.8090957088    3.4309380128
 H    1.1562852947   -4.0305714788    1.8675850276
 H    3.4698352678   -2.2285895374    1.4567133467
 H    3.1783877287   -0.7934704093    2.4697912422
 H    3.5604169298   -3.3530456299    3.5454101511