20

 C    0.2020947071    1.6611433462   -0.3369683559
 O    0.4708472759    0.3158061770    0.0265194675
 C    0.6976781796   -0.5457570250   -1.0519106976
 C    1.3164797855   -1.8981818526   -0.6308136701
 C    0.7566173935   -2.4161129582    0.6944463466
 N    0.9915973918   -2.8167729278   -1.7487579462
 C   -0.3390442784   -2.4387714491   -2.2464423520
 C   -0.5724651041   -0.9886939495   -1.8095036883
 O   -1.5653270081   -0.3315858785   -1.9888940823
 H    1.0323520391    2.0830242095   -0.9254074146
 H   -0.7242995906    1.7471465737   -0.9120764598
 H    0.1099080258    2.2239206132    0.5947483820
 H    1.3652682391   -0.0746022164   -1.7997152090
 H    2.4040110490   -1.8208486148   -0.5523347913
 H   -0.3320363015   -2.5295021892    0.6556410045
 H    1.1908652449   -3.3932175697    0.9196970533
 H    0.9857844001   -1.7193287579    1.5033793463
 H    1.6732482726   -2.6904279540   -2.4883162272
 H   -0.4205904767   -2.5413266813   -3.3324141205
 H   -1.1268531847   -3.0673116955   -1.8105464754