17

 O    0.0983637790    0.0598711717   -0.0962152274
 C   -0.0000217536    1.2494169267   -0.0763400304
 C   -1.1944763339    2.2469332850    0.0775967432
 C   -0.1530644515    3.2015342822    0.7470349102
 C    1.0142930320    2.4314138591    0.0601042252
 O    1.4567815205    2.9314842723   -1.1877037817
 C    0.4828961127    3.5384549410   -2.0284810398
 C   -0.7951314046    2.7263108343   -2.2471720283
 O   -1.7034661117    2.7258673993   -1.1513577005
 H   -2.0500380914    1.9226228607    0.6729080832
 H   -0.2666961983    4.2630072304    0.5283305311
 H   -0.1183887448    3.0567880512    1.8303501433
 H    1.9146175097    2.2314165945    0.6443274240
 H    0.2139571395    4.5390391973   -1.6601002261
 H    0.9860323573    3.6621981829   -2.9926193527
 H   -1.3520798390    3.1728157121   -3.0763073793
 H   -0.5297107520    1.6959903896   -2.5304057443