15

 N    0.0174427366   -1.1568754955   -0.0962292980
 C    0.0279572474   -0.0027128225   -0.0089743417
 C    0.0240801088    1.4156611305    0.0987803679
 N    0.2567412896    2.3120316786   -1.0769607384
 C    1.1592927272    2.4037854802    0.0792040639
 C    0.4572469075    3.2945109852    1.1170614385
 C   -0.7138867193    2.2856119389    1.1147201350
 C   -2.1436621051    2.4080833223    1.3708277946
 O   -1.2486300024    1.7584570789    2.2999477055
 H    0.7160929726    1.7511005460   -1.7956149952
 H    2.2179386294    2.1985424817   -0.0104514204
 H    0.9558448144    3.2900817223    2.0888486960
 H    0.2487114007    4.3165668618    0.7962502671
 H   -2.5506181467    3.3581242156    1.7113860437
 H   -2.8435158208    1.7476791161    0.8628551915