21

 C   -0.1379664895    1.5358184713   -0.3062232401
 C   -0.0006685895    0.0364783321   -0.0770577519
 C    1.0706795671   -0.6842557289   -0.9117696411
 O    2.3435272562   -0.1544099397   -0.5170980916
 C    1.7545468466   -1.1858749772    0.2865694314
 C    0.7348043700   -0.5250932961    1.2247993859
 C    1.2829553839    0.4096165652    2.2981876723
 C    0.2183109004    0.9274935053    3.2583383535
 O    0.8651746298    1.7430861935    4.2234715377
 H    0.8373329097    2.0268822725   -0.2651780056
 H   -0.5709983549    1.7317496935   -1.2937117779
 H   -0.7916367125    2.0027145305    0.4370849343
 H   -0.9713630171   -0.4579976788   -0.1854597276
 H    0.9985438608   -1.0987908834   -1.9112047451
 H    2.3438103067   -2.0826442043    0.4443977459
 H    0.1032981429   -1.2948951099    1.6841063609
 H    2.0348078164   -0.1275130671    2.8907362622
 H    1.7998525229    1.2575276693    1.8398020023
 H   -0.5486428101    1.4956649739    2.7086666311
 H   -0.2928407748    0.0745698285    3.7364503214
 H    0.1973309651    2.0881488699    4.8229529020