15

 C   -0.0721336285    1.5678577628    0.0498928196
 C    0.0210292642    0.0350029695    0.0040641871
 C    0.8103595186   -0.4960572704   -1.1828592354
 C    1.8112763501   -1.3023166256   -0.8211321982
 C    1.8752484411   -1.3986660187    0.6690304393
 O    2.1340830676   -0.1241573138    1.3087817973
 C    0.7796753342   -0.5665667516    1.1900245658
 H    0.9272837810    1.9989876919    0.1483078155
 H   -0.5335602473    1.9613908556   -0.8611192527
 H   -0.6760490787    1.8972401849    0.9013242302
 H   -0.9973174267   -0.3798508844   -0.0128647121
 H    0.5831687353   -0.1930851188   -2.1998014418
 H    2.5096510400   -1.7959747815   -1.4853603307
 H    2.2849260584   -2.2619196006    1.1846038922
 H    0.2700599407   -0.7631621395    2.1300466238