20

 C    0.0424930001    1.4987806738   -1.1101211136
 C    0.0311433795    0.0884208384   -0.7543587587
 C    0.0164103853   -1.0808875066   -0.4623065011
 C    0.0132148969   -2.4697542072   -0.1098069702
 C    0.6131813232   -3.1546385690    1.1650188937
 C    0.0975677043   -4.2776976401    0.2257141450
 C   -1.1946476707   -3.4495911376    0.0197391559
 N    0.6361579376   -3.5588739890   -1.0000956945
 C    2.0768520556   -3.5248764002   -1.2267524285
 H    0.8430397575    2.0363567033   -0.5899748617
 H    0.1962267866    1.6329298709   -2.1865724535
 H   -0.9062710782    1.9806091143   -0.8490002910
 H    1.6885796185   -3.0668962945    1.3138491033
 H    0.0767207736   -2.9959657984    2.1042514833
 H    0.1923151556   -5.3577412522    0.3397274264
 H   -1.8426851312   -3.3095377839    0.8860220517
 H   -1.7342510171   -3.6383328721   -0.9080066927
 H    2.3687068849   -4.4649274212   -1.7069003963
 H    2.2924094530   -2.7118366440   -1.9273085588
 H    2.7166132751   -3.3857405646   -0.3419827486