12

 O   -0.4003897965    0.7233058940    1.0000442103
 C   -0.0296525155    1.1237318592   -0.0656900703
 C    1.3589271690    1.7532187671   -0.2773652426
 C    1.3452659246    2.8387339265   -1.2364171324
 C    1.2885703522    3.7404322290   -2.0376673348
 C    1.2393854111    4.8132968205   -2.9881421399
 O    1.9215839671    5.8106783081   -2.9479894611
 C    0.2560953477    4.6095605445   -4.0690149238
 N   -0.5133235543    4.4524367712   -4.9176418604
 H   -0.6490950015    1.0501274354   -0.9834573095
 H    1.7560751481    2.0652841663    0.6935439073
 H    2.0130229379    0.9508157681   -0.6520288528