19

 C    0.0381641324    1.5231631199    0.0754458530
 C    1.3238412956    0.7351555188   -0.0384077016
 C    2.0219836512    0.4221729652    1.2554518796
 C    1.2440091463   -0.3613428763    2.0184144747
 C    1.2369913873   -1.0135736828    3.3766359362
 C   -0.0438092547   -1.9163082822    3.3458944533
 C   -0.7286399378   -1.5769142601    2.0341562304
 C    0.0014986977   -0.7086362445    1.3231876884
 C   -0.0222743852    0.0032271468    0.0228224347
 H   -0.1750813758    2.0203527626    1.0155569251
 H   -0.3193487868    2.0426099701   -0.8080530980
 H    1.8912295286    0.8019212869   -0.9607535073
 H    2.9951031497    0.8251803412    1.5088250735
 H    2.1450540778   -1.5941458539    3.5660996650
 H    1.1696022539   -0.2708559257    4.1792575604
 H    0.2142137729   -2.9829055660    3.3936386083
 H   -0.6942757200   -1.7286425862    4.2093018120
 H   -1.6773881568   -2.0145609932    1.7457355787
 H   -0.4641764861   -0.4524134803   -0.8548543364