17

 O    0.1221044656    1.3808485009   -0.1835139497
 C    0.0584747595    0.0571409962    0.3488541320
 C   -1.3503981731   -0.4916375539    0.2175630403
 C   -2.4148974728    0.2665780658    0.9962493302
 O   -2.6695310565    1.5345763549    0.4268621040
 N   -1.6733526067   -0.9229425728   -1.1483326949
 C   -1.5865308712   -1.9405739201   -0.0809161374
 C   -0.5080442145   -2.8969452939   -0.1740155403
 N    0.3523283293   -3.6678437571   -0.2175706432
 H   -0.0140911292    1.3005401414   -1.1356482760
 H    0.7768536665   -0.6041751068   -0.1482541229
 H    0.3401815812    0.1403224036    1.4028889483
 H   -3.3632932847   -0.2834487440    0.9750015594
 H   -2.1051548670    0.3443075427    2.0512191873
 H   -1.8068121660    1.9593429575    0.3131928293
 H   -2.6503043790   -0.7300007780   -1.3609182099
 H   -2.5108529613   -2.3689942964    0.2983408835