21

 C   -0.0019032347    1.5395177721   -0.0233009362
 C    0.0082530876    0.0087329630    0.0147387931
 C   -1.4348533828   -0.5436830481    0.0324442989
 C    0.7553951121   -0.5477512504   -1.2251078694
 O    0.9222918628   -1.9512842120   -1.1816764786
 C    1.7571593534   -2.3433320215   -0.1097439499
 C    1.1377695818   -1.9634240995    1.2467629823
 C    0.7451853841   -0.4915541189    1.2674345802
 O    1.0097202142    0.2311208128    2.2005684245
 H    1.0139630475    1.9452386082   -0.0133220926
 H   -0.5089609530    1.8962499191   -0.9261750194
 H   -0.5209133361    1.9437614773    0.8484817995
 H   -2.0011397859   -0.1172661149   -0.8027085464
 H   -1.4499401980   -1.6304443478   -0.0754786438
 H   -1.9495478730   -0.2736037599    0.9597228393
 H    0.1816965188   -0.3303891428   -2.1318969120
 H    1.7367129240   -0.0520192692   -1.3170514820
 H    1.8876147890   -3.4256581263   -0.1910760676
 H    2.7497060341   -1.8733752238   -0.2105666450
 H    0.2372067511   -2.5694848138    1.4026564210
 H    1.8253249632   -2.1555924534    2.0743874241