14

 C   -0.7614764525    0.1108832477   -0.9002895706
 C   -0.1130845029    0.5774799992   -0.0020653854
 C    0.7172280244    1.1188753192    1.0731989306
 N    1.6626697337    2.1972913782    0.7291880421
 C    2.0024550781    2.4580486620   -0.6552602826
 C    1.1862827943    3.4469836047    0.1245791078
 C   -0.2017964463    3.6704869209   -0.2015966813
 N   -1.3117025928    3.9130083171   -0.4189881922
 H   -1.3636370502   -0.2843240451   -1.6812857868
 H    0.0841209557    1.4882628759    1.8873282794
 H    1.3263643710    0.3095986530    1.4924347083
 H    3.0465658814    2.6813035757   -0.8545641997
 H    1.4784402032    1.8989712661   -1.4261227563
 H    1.6718433529    4.3347205855    0.5220244868