15

 N    0.0844397199    1.1267441067    0.8592104767
 C    0.0022189703    0.0199593438    0.0555696217
 N    1.2379714808   -0.4840983765   -0.3184547753
 N   -1.0629680336   -0.5621098284   -0.3759657014
 C   -2.3407082701    0.0909402085   -0.2058700341
 C   -3.3645526898   -0.6987988290   -1.0563718426
 O   -4.2398912091   -0.1858776194   -1.6917509091
 C   -2.8145665061    0.1121492373    1.1935379359
 N   -3.1489912972    0.1321328599    2.3008692427
 H    0.9115807186    1.6974037494    0.8175443504
 H   -0.7536574514    1.5714166685    1.1895987737
 H    1.9296654522   -0.5156944440    0.4177877701
 H    1.1471092189   -1.3619547325   -0.8099941334
 H   -2.3663450679    1.1292002476   -0.5740095708
 H   -3.1789212654   -1.7914446719   -1.0329366244