15

 C    0.0576593833    1.3849950195    0.0945043825
 N   -0.1443707102   -0.0354469989   -0.1104863202
 C    0.5772235334   -0.6529429020   -1.1110455652
 C    1.2388997205   -0.1281865883   -2.1749000423
 O    1.7424465970   -1.2104470471   -2.9098567852
 C    1.3526650376   -2.2859356904   -2.2122421431
 N    1.7787804308   -3.5090823047   -2.6668140519
 N    0.6592235223   -2.0437076315   -1.1403452957
 H    1.1104342530    1.6560252690    0.2756655661
 H   -0.2822915566    1.9362153490   -0.7898494513
 H   -0.5433544492    1.7175625594    0.9436065191
 H   -0.1746050919   -0.5928487962    0.7308341717
 H    1.4362087041    0.8499216643   -2.5689301999
 H    1.9332768580   -3.5544705669   -3.6632454868
 H    1.2297631582   -4.2758102953   -2.3079361379