12

 O   -0.0966186800   -0.0717771104    0.0036268399
 C   -0.0308688076    1.1358866320    0.0074992810
 C    1.2050605563    1.8762144432   -0.0000936993
 C    2.2323030338    2.5230881708   -0.0062163340
 C    3.3819598502    3.2404619537   -0.0130889698
 C    4.4077620382    3.8805659811   -0.0191977215
 C    5.6551565217    4.6335220548   -0.0268284311
 C    5.4548434851    6.0888807280   -0.0171221314
 N    5.3121445155    7.2341242134   -0.0096177356
 H   -0.9383290838    1.7714055257    0.0175963514
 H    6.2653772112    4.3589794417    0.8438555902
 H    6.2489102694    4.3684216062   -0.9117104398