23

 C   -0.1101622045    1.5855375957   -0.1616308551
 C   -0.0075660254    0.0589630812    0.0161098014
 C    0.7410955555   -0.5694864485   -1.1404180962
 C    1.9613663083   -0.9750077795   -0.7950594304
 C    2.2403847016   -0.7337885992    0.6690366965
 C    0.8308586051   -0.4259482023    1.2456898183
 C    0.8082150612    0.4874767810    2.4727522060
 C    1.5044907777   -0.1183832763    3.6858598725
 O    1.3666973137    0.7934193475    4.7665497775
 H    0.8803166595    2.0479361670   -0.2257972433
 H   -0.6441258053    1.8246143456   -1.0874436715
 H   -0.6534995666    2.0538739033    0.6647921007
 H   -1.0306095669   -0.3323754167    0.0904562317
 H    0.3276382438   -0.6071444892   -2.1431759890
 H    2.6951610439   -1.4034852274   -1.4693470667
 H    2.7128295780   -1.5919854992    1.1607773701
 H    2.9317302423    0.1123297147    0.8033335611
 H    0.3986626552   -1.3923459725    1.5381450451
 H    1.2831697521    1.4497994801    2.2488376832
 H   -0.2274619827    0.7089742739    2.7590099083
 H    1.0474499643   -1.0929639439    3.9269259862
 H    2.5662582332   -0.3049435309    3.4594541022
 H    1.8224267960    0.4261286255    5.5293535615