23

 C    0.1206996263    1.0220352379   -0.3449723931
 O   -0.4220361280   -0.0513892140    0.3981833258
 C    0.4795305417   -0.5850323411    1.3169494849
 C    0.1716736294   -1.9522587343    1.8315718457
 C    1.3752029364   -1.7446368294    0.9236545760
 C    1.3658232323   -2.3160345356   -0.4670715660
 C    2.5027105128   -1.9313839105   -1.4614985466
 C    2.4982849154   -3.3956707508   -1.9753269582
 C    1.7667397077   -3.8085999873   -0.6704615976
 H    0.9949798698    0.7123332933   -0.9341514461
 H   -0.6620958832    1.3736185876   -1.0212847758
 H    0.4222210684    1.8530305178    0.3111062800
 H    0.8857373805    0.1505602123    2.0138993126
 H    0.3247860754   -2.1647317252    2.8836642193
 H   -0.6905503316   -2.4412851999    1.3901717965
 H    2.3469392247   -1.7705006197    1.4137277729
 H    0.3917441201   -2.1274285788   -0.9289198885
 H    2.3054278565   -1.1333951461   -2.1822922933
 H    3.4299527382   -1.6951147879   -0.9282898850
 H    1.8569596783   -3.5138048257   -2.8537140980
 H    3.4628571637   -3.8627279172   -2.1875212730
 H    2.4728333125   -4.1351252557    0.1002821464
 H    0.9642344728   -4.5473403199   -0.7393179891