13

 O    0.0047968613   -0.0820735490   -0.0009947443
 C   -0.0012469002    1.1287647644    0.0096517637
 C    1.1852804964    1.9701615844    0.0029849761
 C    1.3168582909    3.3479566039    0.0134837842
 C    2.7266992500    3.6063556293   -0.0010108751
 C    3.3273696265    2.3859045293   -0.0186660730
 O    2.4155316958    1.3918965377   -0.0165522315
 C    0.2746411501    4.3004656357    0.0341120587
 C   -0.5966275957    5.1313932319    0.0515275673
 H   -0.9405086351    1.7187902979    0.0258707629
 H    3.2060383921    4.5715536733    0.0016842487
 H    4.3596873232    2.0753459664   -0.0335578951
 H   -1.3717334554    5.8574579050    0.0665830575