18

 C   -0.0250941402    1.5374372272   -0.0596193337
 C    1.4407885009    1.9368112514    0.0782896126
 C    2.2181575893    0.8681163203    0.2417497101
 C    3.6768858143    0.4972379571    0.1691897994
 C    3.5856368641   -0.9832490665   -0.1913865094
 C    2.3341826872   -1.4617772738   -0.1441829953
 C    1.4081617062   -0.3893591576    0.2718984395
 N    0.4233350383   -0.4599297104    1.3964696225
 C   -0.0092022184    0.0082381898    0.0575300067
 H   -0.6634736942    1.9846886207    0.7119344601
 H   -0.4243816835    1.8583547472   -1.0309801143
 H    1.7651814592    2.9687146919    0.0027672921
 H    4.2312934349    1.0809555686   -0.5750642965
 H    4.2077642879    0.6299519198    1.1233431041
 H    4.4634641646   -1.5672066467   -0.4441043476
 H    2.0423171291   -2.4878528301   -0.3353391032
 H    0.1310409555   -1.4333466160    1.4947228211
 H   -0.7241961751   -0.5887730228   -0.4987744582