17

 C   -0.0454026494    1.6010592014    0.0344330424
 C    0.1330675271    0.0818446841    0.0312973533
 N    0.8562089635   -0.3403131157   -1.1621956552
 C    1.8711464333   -1.0692707383   -1.0580722626
 N    2.6356415730   -1.5146789293   -2.1362261695
 C    3.7001902652   -2.2973825663   -1.7630586785
 O    4.5276174727   -2.8168124014   -2.4673576095
 C    3.5873897018   -2.3521317935   -0.2396278276
 O    2.4342693995   -1.5730030794    0.0855751595
 H    0.9234899502    2.1067931872    0.0930206289
 H   -0.5429451232    1.9310137290   -0.8819478840
 H   -0.6484004259    1.9157067925    0.8920858472
 H    0.6235098679   -0.2425320658    0.9576423263
 H   -0.8558723075   -0.3943429978    0.0071080161
 H    2.4085182168   -1.2669693322   -3.0858110606
 H    3.4560467675   -3.3816273336    0.1077307006
 H    4.4772488175   -1.9262099509    0.2345188333