18

 C    0.4037143523    1.3910993495   -0.0975704913
 N    0.4261233302   -0.0620694208   -0.0097384671
 C    0.5692096739   -0.7408086194   -1.0452899326
 O    0.6888990092   -0.3477692820   -2.3887535295
 C    0.7195186723   -1.7304031267   -2.8356519552
 C    2.1337648565   -2.3390986383   -2.8673423301
 C    3.3197802165   -1.4686957518   -3.2138414751
 O    2.0427147051   -2.6672930662   -1.4463469229
 C    0.6732322657   -2.2172356525   -1.3748699376
 H    1.2555184834    1.7929047490    0.4621755900
 H    0.4400763844    1.7793507939   -1.1218994574
 H   -0.5031341426    1.7616659316    0.3915418039
 H    0.0027428465   -1.9213938458   -3.6316046835
 H    2.1416657086   -3.2709944921   -3.4498769600
 H    3.2525536542   -0.5021423541   -2.7104792848
 H    4.2449918691   -1.9642804698   -2.9055685480
 H    3.3650415036   -1.3010400487   -4.2951407925
 H   -0.0065631190   -2.9322764759   -0.9125704062