17

 C   -0.0578779621    1.4773224413    0.0912220307
 C   -0.0517754173    0.0228331146    0.0553913125
 C   -0.0436371243   -1.1800980314    0.0422442158
 C   -0.0556815129   -2.6353647019   -0.0154705750
 O    0.7329984693   -3.1804004707    1.0519487074
 C    0.1987890174   -4.4362564395    1.4549280099
 C   -1.2616082714   -4.4061465235    1.0620935528
 O   -1.9244967316   -3.2084116467    1.4838193399
 C   -1.4305567399   -3.2773268242    0.1489195021
 H    0.6024568939    1.8505959418    0.8815433917
 H    0.2865236388    1.9024122392   -0.8578525671
 H   -1.0629059796    1.8662347153    0.2877321481
 H    0.3464638910   -2.9663143658   -0.9897174464
 H    0.6979580141   -5.2762911856    0.9442266937
 H    0.3616077094   -4.5352895208    2.5329763667
 H   -1.8603792819   -5.3119621986    1.0292790023
 H   -2.1599385330   -3.2286097134   -0.6541016751