15

 C   -0.0130665230    1.4398941963   -0.0257939246
 N   -0.0072898548    0.0009809457    0.0696287945
 N   -0.0406352139   -0.7740628124   -1.0827925630
 N   -0.0262829648   -2.0288815443   -0.7550344995
 C    0.0171838552   -2.1203994481    0.6069648921
 C    0.0292911781   -0.8332124143    1.1252403561
 N    0.0712002574   -0.8778263428    2.4851148192
 C    0.0868514749   -2.2360291546    2.8384522862
 C    0.0545368839   -3.0245518039    1.7173617081
 H    0.8953769975    1.8691346131    0.4103959140
 H   -0.0527918681    1.6888915416   -1.0866733191
 H   -0.8882948449    1.8658532809    0.4764427744
 H    0.0906304050   -0.1094571784    3.1301877241
 H    0.1203455448   -2.5104683636    3.8809186318
 H    0.0575155927   -4.1023658249    1.7059477456