15

 O   -0.0207733165    0.0081162765   -0.3189919586
 C    0.0087596607    1.1663312885   -0.0197919257
 O   -1.1258909030    1.8875694489    0.2373992966
 C   -0.7700173454    3.2008708567    0.7592829025
 C   -0.6258229754    3.0088955595    2.2592430216
 C    0.6463186665    2.7270792963    2.5512206517
 C    1.5161769600    2.8847378843    1.3493200368
 C    0.6710044791    3.4690966923    0.2635305377
 C    1.1964582994    2.0827565663    0.0526104681
 H   -1.5341101171    3.8963332605    0.4156326404
 H   -1.4788661291    2.9128238124    2.9181099417
 H    1.0238194534    2.4010362849    3.5126204827
 H    2.5592601138    3.1571522611    1.4584942403
 H    0.9323744469    4.3297525723   -0.3375379466
 H    2.0280020569    1.8472432895   -0.5988418092