18

 C    0.1250431690    1.2891020184   -0.4856716540
 C   -0.0434218788   -0.0151829977    0.3070968090
 C   -1.4609885457   -0.5546043585    0.2411157091
 C   -2.5357513936    0.2548523781    0.9387625742
 O   -1.8424393141   -1.0943353049   -1.0229461188
 C   -1.7255449514   -2.0186687478    0.0529588702
 C   -0.6401392455   -3.0437456329    0.0009744009
 O    0.3246039572   -3.0083014282   -0.7204424561
 H    1.1705379785    1.6093639888   -0.4703136593
 H   -0.1678942080    1.1409901450   -1.5291445145
 H   -0.4760725691    2.1060286380   -0.0747459824
 H    0.6389289893   -0.7660636440   -0.0953002394
 H    0.2228067701    0.1460984543    1.3592792042
 H   -2.5744874320    1.2710187696    0.5347969601
 H   -3.5183872697   -0.2013332410    0.7993870350
 H   -2.3290767420    0.3279862758    2.0114387507
 H   -2.6716563428   -2.4024501083    0.4406292142
 H   -0.7938693713   -3.8778093046    0.7234684068