25

 C   -0.2780308643    1.2983102419   -0.5596559147
 C   -0.2599812319   -0.1697281950   -0.1189160289
 C    0.5794047626   -0.4222880051    1.1563388244
 C   -0.2399822398   -0.0311856249    2.3909971961
 O    0.6164360612    0.1924044840    3.5056499382
 C    1.1669035720   -1.8634515932    1.1926537959
 C    2.1232509189   -2.0739375397    2.3740849035
 C    0.0811890842   -2.9524187447    1.1850470876
 O    1.9263348225   -1.9516496898   -0.0268267438
 H    0.7323213760    1.6426133862   -0.8050584774
 H   -0.9007051952    1.4317030772   -1.4501571866
 H   -0.6727935156    1.9625763791    0.2168659502
 H   -1.2906773169   -0.5138002973    0.0431218339
 H    0.1497380950   -0.7771889581   -0.9283982816
 H    1.4476513441    0.2484029918    1.1264200014
 H   -0.8021320392    0.8848775420    2.1581982554
 H   -0.9842111410   -0.8121692698    2.6137764931
 H    0.0714200107    0.4669765001    4.2488559560
 H    1.6137443737   -1.9856295446    3.3341942026
 H    2.5758538642   -3.0718865371    2.3090884764
 H    2.9249418184   -1.3312337978    2.3492455249
 H   -0.5795701429   -2.8467864937    0.3212942480
 H    0.5486936122   -3.9425083796    1.1313721425
 H   -0.5267676938   -2.9329289952    2.0947987541
 H    2.3690240050   -2.8066493466   -0.0289269313