21

 C    0.0010464603    1.5174035653    0.0817466476
 C   -0.0159919010    0.0241947021   -0.0069641163
 C   -0.0027692449   -0.7321942428   -1.1099105266
 C   -0.0511467078   -2.2162083449   -0.8026056547
 O    0.9374299502   -2.9960402721   -1.4667781303
 C    0.0113353112   -2.2718828470    0.7345260954
 C   -0.7125573098   -3.4006589390    1.4261829990
 C    1.2531698182   -1.6836202190    1.3665203180
 C   -0.0030185854   -0.8404425356    1.2199882046
 H    0.8704565594    1.8684895595    0.6518470558
 H    0.0266828292    1.9805863274   -0.9080174519
 H   -0.8863941481    1.8906002630    0.6085360574
 H    0.0530789124   -0.3644083035   -2.1286814368
 H   -0.9973809973   -2.6565510753   -1.1459551769
 H    1.7972841280   -2.6649724825   -1.1839466614
 H   -0.2986702929   -4.3678665088    1.1183941042
 H   -0.6260908104   -3.3304367116    2.5151167547
 H   -1.7795651039   -3.4009946186    1.1746244104
 H    1.5077180223   -2.0480978351    2.3570700107
 H    2.1095912314   -1.4133586817    0.7547935130
 H   -0.5416067410   -0.5345564200    2.1113529640