18

 C   -0.0347410140    1.5650036502    0.0100636215
 C    0.0576248060    0.0439960719    0.0280385526
 C   -1.1580375566   -0.6055622016   -0.4066299219
 N   -2.1360983254   -1.1159449660   -0.7556879438
 C    1.3263708735   -0.7339043276   -0.3293444061
 C    2.6424535625    0.0199080482   -0.2956904786
 O    2.6897596737    0.6911337390    0.9615182873
 C    1.8690663287   -0.0012057712    1.8998663428
 C    0.8268909055   -0.7474720561    1.0884392072
 H    0.8978299001    2.0201862314    0.3429831287
 H   -0.2564232843    1.9184630617   -1.0012763956
 H   -0.8434763558    1.9025220771    0.6649816433
 H    1.2345124504   -1.5954915600   -0.9788078454
 H    3.4712235741   -0.6980458813   -0.3960348880
 H    2.7519803086    0.7804529735   -1.0757008008
 H    2.4563041090   -0.7257417684    2.4851839233
 H    1.4610307724    0.7452484605    2.5891730992
 H    0.3534164916   -1.6194152113    1.5221568044