17

 C    0.0283294710    1.5156235937   -0.2182757506
 C   -0.0038885547    0.0239210432   -0.0446317398
 C   -1.1343561724   -0.6907325990   -0.0156575322
 C   -1.1923308913   -2.1757862510    0.1558896429
 C    0.1478088508   -2.8712550471    0.3034427268
 O    0.2621426228   -4.0684208047    0.4503438553
 N    1.2551239229   -2.0467195638    0.2602574653
 C    1.3011970445   -0.6550545484    0.0986322937
 N    2.3831680597    0.0243742964    0.0712075618
 H    0.6080492623    1.7924252542   -1.1038471295
 H   -0.9840098076    1.9154643952   -0.3150677965
 H    0.5225875284    1.9962611948    0.6312284470
 H   -2.0883267407   -0.1805946540   -0.1219896908
 H   -1.7941560604   -2.4468630948    1.0336104015
 H   -1.7092978402   -2.6491120209   -0.6895787630
 H    2.1360674992   -2.5352054533    0.3608516918
 H    3.2088864155   -0.5676348305    0.1809619063