15

 N    0.0633147910   -1.1222309314    0.1400258027
 C   -0.0049908147    0.0315868298    0.0605809814
 C   -0.0580583237    1.4443538703   -0.0556199471
 C   -1.1631176740    2.2177781465   -0.0472380885
 C   -0.7400628235    3.6558915696   -0.0054719386
 C   -0.0256446239    3.8345388957    1.3905161233
 N    1.3045661784    3.4952966276    0.8191067805
 C    0.7203583734    3.6659255940   -0.5489691389
 C    1.1521479519    2.3137926086   -0.1420897835
 H   -2.1776657097    1.8725752867    0.1050227882
 H   -1.4652861121    4.4046547305   -0.3140533274
 H    0.0065742099    4.8842455789    1.6885986476
 H   -0.3679500916    3.2118002259    2.2226666775
 H    1.1604983943    4.2905015588   -1.3189389909
 H    2.1158008543    1.9078735485   -0.4196026063