17

 C    0.0115007010    1.4610374311    0.0093526814
 C   -0.2034051896   -0.0175132206    0.0077940835
 C   -0.3330378065   -0.8575289180   -1.0237568657
 C    0.3191896012   -1.1545816656   -2.3552313926
 O    0.7687053385   -2.4251129444   -1.7879289829
 C   -0.1707027119   -2.3031582815   -0.6698952791
 C    0.2275714705   -2.2740004178    0.8000867758
 O    1.3348925124   -1.4605645683    1.1595775687
 C    0.0175455872   -0.8670137270    1.2359219295
 H    0.9755936208    1.7137532293    0.4673693725
 H   -0.0086357328    1.8697310755   -1.0042438690
 H   -0.7615590503    1.9767600569    0.5926899846
 H   -0.3530132783   -1.3223850257   -3.2065877865
 H    1.1531446688   -0.5132285757   -2.6586718789
 H   -1.0232217816   -2.9796854817   -0.8190914979
 H    0.0386172590   -3.1213994706    1.4530708594
 H   -0.3021905785   -0.5915174858    2.2372599070