15

 C    0.0822531068    1.5455622839   -0.2577427588
 C   -0.0325207261    0.0763541630    0.0533480949
 O    1.1687274713   -0.7120222029    0.0407448018
 C    0.4653456749   -0.5826313857    1.2704715656
 C    1.1677427508    0.1718073600    2.3917526436
 O    0.2482628904    0.6819627457    3.3397025638
 C    2.1766164986   -0.6949075071    3.0358738145
 N    2.9274587977   -1.3948286589    3.5661745348
 H    0.9460012130    2.0069208969    0.2246288596
 H    0.1874439376    1.6885923283   -1.3377141833
 H   -0.8214539984    2.0714243090    0.0666286330
 H   -0.8722996682   -0.4208801174   -0.4358673348
 H   -0.0360075022   -1.4929733464    1.6079862917
 H    1.6879192252    1.0373490862    1.9747692142
 H   -0.1337901212   -0.0575401047    3.8265820593