21

 C    0.0268698832    1.5413515459    0.0735542673
 C   -0.0110722325    0.0186288091    0.0121277352
 C    0.6856001186   -0.5249248270   -1.2425208658
 C    0.6564219594   -2.0460603302   -1.4096897463
 O    1.3634609622   -2.7307071239   -0.3813914253
 C    0.6096675994   -2.9223235633    0.7722126756
 C    1.2995348786   -2.6565227477    2.0821938827
 C    0.2235943011   -1.7189248709    1.6052522432
 O    0.6351744005   -0.4546752677    1.2000442614
 H    1.0630330705    1.8936769644    0.0945652913
 H   -0.4703762707    1.9798992735   -0.7966984970
 H   -0.4720283978    1.8977759012    0.9784467163
 H   -1.0606399311   -0.3183227099    0.0195682161
 H    0.2179330174   -0.0758729274   -2.1294070293
 H    1.7313708940   -0.1953423583   -1.2243477835
 H   -0.3810718600   -2.4112370905   -1.4666494240
 H    1.1534216402   -2.3191121988   -2.3466153354
 H   -0.1026739298   -3.7475312190    0.7155039158
 H    1.1046224995   -3.3052668321    2.9282379829
 H    2.3115005906   -2.2766362149    2.0034111339
 H   -0.7466706733   -1.7420684524    2.1050131246