16

 N    0.1501164097    1.4456374499   -0.0073284513
 C    0.0455286355    0.0384400347   -0.0353650194
 C    0.0487621950   -0.8092656519    1.2849815522
 N   -1.4091861647   -0.4714577013    1.4887541877
 C   -1.3078075477   -0.8165239998    0.0261268484
 C   -0.3047034419   -1.9596993814    0.3057110681
 O    0.6665677821   -2.0382041129   -0.7459460497
 C    0.9071235122   -0.7084721190   -1.0125772982
 N    1.6540119416   -0.2266527524   -1.9032888269
 H    0.2290788946    1.8247297926   -0.9438816424
 H   -0.6334732536    1.8609240613    0.4829233401
 H    0.7824420038   -0.7806771429    2.0911772266
 H   -1.8779672949   -1.2297903190    1.9949999093
 H   -2.1625558261   -0.7927254630   -0.6513846248
 H   -0.6122504950   -2.9455699629    0.6471819961
 H    2.1030937796   -0.9634807421   -2.4494780259