17

 C   -0.1059732003    1.5308655632    0.0018435495
 C    0.1621417154    0.0538208539   -0.0044339289
 C    0.4716990754   -0.6701413481   -1.3041815132
 O    1.1284038425   -1.8949321080   -0.9396746198
 C    1.4277602814   -1.9287203249    0.3877006213
 O    2.1004806375   -2.7850716302    0.8832945622
 C    0.7875359443   -0.7372254958    1.0689423871
 C    1.2917509383   -0.2979402786    2.4077467565
 O   -0.6427240705   -0.7776535534    0.8415845853
 H    0.7403747909    2.0823209390   -0.4196355951
 H   -0.9931078550    1.7612643363   -0.5979266434
 H   -0.2861212419    1.8855096126    1.0185943811
 H   -0.4348690726   -0.9181581897   -1.8640526358
 H    1.1450227649   -0.0883188913   -1.9434347770
 H    2.3422267713    0.0015643905    2.3441681164
 H    0.7034846390    0.5383092831    2.7904598058
 H    1.2269367094   -1.1290643685    3.1156596179