25

 C   -0.1509617514    1.5378842509    0.0374116965
 C    0.1089247859    0.0257907859    0.0161635002
 C    0.7706101927   -0.4780870336   -1.2524140869
 C    0.0690513498   -0.4215277885   -2.6478593175
 C    1.1063482886   -1.5233853964   -3.0024099949
 C    2.4281834548   -0.7344461274   -2.9393381288
 C    2.1770894097    0.0583464425   -1.6163262669
 C    0.9202513210   -2.0162647885   -1.5343227247
 C    1.9571135419   -2.8774613693   -0.8271180918
 H    0.7814625234    2.1087282400   -0.0144915997
 H   -0.7746806942    1.8440058364   -0.8094114248
 H   -0.6685370290    1.8337288936    0.9551897338
 H    0.7341319365   -0.2466189393    0.8780020215
 H   -0.8430308567   -0.5039582171    0.1532760978
 H   -0.9572122387   -0.7969946733   -2.6153571435
 H    0.1094105228    0.5177112622   -3.2087126955
 H    0.9639107061   -2.1939557441   -3.8514153387
 H    3.3077245230   -1.3824254005   -2.8879596079
 H    2.5536334432   -0.0775249180   -3.8050538428
 H    2.1732717712    1.1403365169   -1.7747549571
 H    2.9188090258   -0.1560429596   -0.8405897393
 H   -0.0655154020   -2.4857651920   -1.4345843352
 H    2.9671434294   -2.4623755652   -0.8841021017
 H    1.7087791442   -2.9942966109    0.2339599567
 H    1.9894325018   -3.8814124644   -1.2655621088