22

 C   -0.1843993716    1.4669621763   -1.2622634937
 C   -0.1053807553    0.1183189182   -0.5833516202
 C    1.1839452423   -0.6156234308   -0.3419378550
 C    2.5376627522   -0.0773815466   -0.7457074220
 C    0.3929446173   -0.0702238359    0.8537701813
 C    0.8462815830    1.0138565911    1.7660957791
 C    0.5347931036    0.8762464960    3.2381645407
 N    1.4836847083    2.0279186583    1.3045565906
 O    1.8221700697    2.9318003565    2.3308301091
 H    0.6141221095    2.1355782108   -0.9411130032
 H   -0.1284129235    1.3484993415   -2.3503911598
 H   -1.1366810518    1.9569082094   -1.0313357900
 H   -0.9526426831   -0.5232031924   -0.8167471893
 H    1.1130908142   -1.6975962451   -0.4317403780
 H    2.6313291826    0.9897071718   -0.5432785749
 H    3.3336760884   -0.5886812088   -0.1932895013
 H    2.7133804451   -0.2489557397   -1.8138419835
 H   -0.1457222150   -0.8361006402    1.4016041414
 H    1.4595295493    0.8914157677    3.8236919768
 H   -0.0586157679    1.7296848395    3.5814119385
 H   -0.0080816905   -0.0452296677    3.4517744805
 H    2.2815997331    3.6231732601    1.8436209328