27

 C   -0.0504618822    1.5696922291   -0.0381818185
 C    0.0363163075    0.0391235960    0.0367656444
 C    0.9023863400   -0.3907037266    1.2297923853
 C   -1.3729036051   -0.5801536075    0.0770359502
 C   -1.4176843803   -2.1080780696   -0.0385147098
 C   -2.8475962301   -2.6566970612   -0.0952993442
 C   -2.9162985925   -4.1763944679   -0.2414588242
 C   -4.3528576089   -4.6998554886   -0.2185525799
 O   -2.2738216890   -4.4989267923   -1.4749713755
 H    0.9444500159    2.0223649183   -0.1071045906
 H   -0.6289186018    1.8953850645   -0.9092520564
 H   -0.5381445708    1.9778424761    0.8555585230
 H    0.5276116120   -0.3153655948   -0.8813369172
 H    1.0501325388   -1.4739223037    1.2630190679
 H    1.8923131069    0.0755857877    1.1833627477
 H    0.4384680339   -0.0872573282    2.1766697730
 H   -1.8735781153   -0.2656000882    1.0051587765
 H   -1.9645178676   -0.1501249903   -0.7428960547
 H   -0.8823312874   -2.4288816767   -0.9391139001
 H   -0.8955277096   -2.5661351427    0.8114840436
 H   -3.3940900650   -2.3695205299    0.8122240675
 H   -3.3838928237   -2.2086301176   -0.9425671744
 H   -2.3596057949   -4.6317191809    0.5964325876
 H   -4.9349053690   -4.2533232873   -1.0312289913
 H   -4.3747479727   -5.7890130644   -0.3433330855
 H   -4.8438459325   -4.4660176892    0.7318856235
 H   -2.2953772168   -5.4550195741   -1.5801852778