14

 N    0.0812997712    1.3162406425    0.1216290554
 C    0.0300324046   -0.0417926052    0.0361550534
 N   -1.0584258053   -0.7320990695    0.0082288372
 C   -0.7302786717   -2.1550979472   -0.0138957652
 C    0.7989803963   -2.2754070677   -0.0176959463
 O    1.4644990823   -3.2775207496   -0.0412598747
 C    1.2678342751   -0.8432506101    0.0115543062
 N    2.4271348657   -0.2974250738    0.0001503119
 O    3.4640042720   -1.1953182821   -0.0429621592
 H    0.9467439227    1.7588448598   -0.1405439289
 H   -0.7705041767    1.8143372669   -0.0825028663
 H   -1.1480356790   -2.6762506893    0.8571921350
 H   -1.1493462752   -2.6479445540   -0.9004257281
 H    4.2429354381   -0.6252160407   -0.0424249304