19

 O    0.2344502545    1.0978233399    0.2084974086
 C   -0.1148456263   -0.1654337432   -0.3179301861
 C   -1.5732547693   -0.5192908485    0.0034508474
 O   -1.6852705487   -0.4656741500    1.4186147740
 C   -2.7642234255   -1.1825001452    1.9488536910
 C   -3.2263645155   -0.7849819936    3.3100984717
 C   -4.1144581114   -0.5286630763    2.1070408285
 C   -2.5137068092    0.4767441208   -0.6747906149
 O   -2.9030766308    0.3496892710   -1.8054033181
 H    0.0484217204    1.0568776220    1.1538441328
 H    0.0172835492   -0.1157837230   -1.4025304771
 H    0.5292998081   -0.9659158094    0.0761109135
 H   -1.7987798437   -1.5230286056   -0.3835942785
 H   -2.7427288082   -2.2431880460    1.6994831388
 H   -3.4983890982   -1.5636133452    4.0132052469
 H   -2.7395253525    0.0771145924    3.7515831374
 H   -4.2161214057    0.5014325620    1.7865155880
 H   -5.0007710142   -1.1376285216    1.9677625954
 H   -2.7846424830    1.3524589896   -0.0463482092