17

 N    0.0954895914    1.3720967543   -0.1424385906
 C    0.0876353837    0.1327397359    0.1122318506
 O    1.2245832510   -0.5518030104    0.4031838616
 C    1.1652629010   -1.8205311547    1.0829924594
 C   -0.0442332420   -2.6460913613    0.6744804957
 N   -1.2063879166   -1.8020966112    0.8756932923
 C   -1.1894237870   -0.6788036338   -0.0359864125
 C   -2.4536038674    0.1596953357    0.1214659708
 O   -3.4567101506   -0.2975089300    0.6063276291
 H    1.0400008501    1.7491053445   -0.0449003233
 H    2.1045992810   -2.3228359035    0.8398413571
 H    1.1279500043   -1.6274517510    2.1611971023
 H    0.0718503903   -2.9958356917   -0.3689541629
 H   -0.1055362700   -3.5274794019    1.3202202404
 H   -2.0938095111   -2.2856933591    0.8123936584
 H   -1.1995654815   -0.9937145085   -1.1066017943
 H   -2.3870469167    1.1877518767   -0.2746083241