14

 N   -0.1890424417    1.4225990092    0.1066846453
 C    0.3691268005    0.1168468773   -0.2136138949
 C    0.9727038608   -0.4783364270    1.0449336321
 O    0.0448722261   -1.0359614204    1.9842019462
 C    0.9356990449   -1.9386172146    1.3347680694
 C    0.3610629850   -2.8739041020    0.3912985230
 N   -0.0725960933   -3.6421609702   -0.3549579934
 C    2.0621666234    0.2761270900    1.6451785680
 N    2.9562499782    0.8472826002    2.1013518290
 H   -0.4016429536    1.9376063579   -0.7394958911
 H   -1.0545461841    1.3200954549    0.6263831863
 H   -0.3431911236   -0.6142314386   -0.6231397596
 H    1.1702184414    0.2455850890   -0.9494149876
 H    1.7143885862   -2.3573803658    1.9686524073