19

 C    0.0377502601    1.5477108530    0.0244985955
 C    0.0109269058    0.0160563082   -0.0486369425
 C    0.7588710090   -0.5157835595   -1.2366682169
 C    0.9595744547   -1.9946313859   -1.7265218679
 C    1.6071032605   -1.0820407252   -2.8152379132
 N    0.4256798573   -0.1149915425   -2.6922211430
 C    2.2049712178   -0.3057207922   -1.6571791706
 N    3.2453356969    0.2079509495   -1.1752572872
 O    4.3503043790    0.0492832144   -2.0474105560
 H    1.0645087377    1.9112125156    0.1224266658
 H   -0.3851105837    1.9850908711   -0.8840251368
 H   -0.5380251266    1.9060201393    0.8825511078
 H    0.4545446609   -0.4170588577    0.8562739106
 H   -1.0237860116   -0.3475569743   -0.0911275079
 H    1.6056404556   -2.6560156575   -1.1408933114
 H    0.0385340133   -2.4946685256   -2.0447794365
 H    2.0441834253   -1.3499856134   -3.7734658543
 H   -0.4209223031   -0.6294765405   -2.9645693774
 H    5.0480235910    0.5041290932   -1.5639603080