16

 C   -0.2189061710    1.6480280473   -0.1175706153
 C    0.0737122798    0.1516211424   -0.0256072287
 C    0.9750979883   -0.4004570858   -1.1943490546
 N    2.1464983670   -0.9600275280   -0.5376973195
 C    2.0042306380   -0.7420611024    0.7079003044
 N    2.8915622879   -1.0207311158    1.7053258341
 O    0.8751471436   -0.1044548570    1.1512987266
 C   -1.1772026420   -0.6156329449    0.1078654170
 N   -2.1654528154   -1.2096506371    0.1817880399
 H    0.7259989349    2.1913806305   -0.1991072073
 H   -0.8263398249    1.8582651641   -1.0023114051
 H   -0.7562482951    1.9960769464    0.7673696716
 H    0.4506835731   -1.1587420138   -1.7834980273
 H    1.2498428704    0.4152456572   -1.8742440870
 H    3.6085599286   -1.6813295420    1.4496831687
 H    2.4920967267   -1.1521762714    2.6215226325