17

 C   -0.0258570073    1.4234977915    0.0666163892
 N   -0.0086815910   -0.0219606200    0.0300509559
 C   -0.0253135708   -0.7890938471   -1.1136247750
 C   -0.0003236331   -2.1121521026   -0.7463345019
 C    0.0330467932   -2.1555411041    0.6748108241
 C    0.0269309754   -0.8559457386    1.1272125486
 C    0.0527000835   -0.3210089427    2.5238692317
 O    0.0784337526   -1.4221413800    3.4128444913
 H    0.8690070525    1.8233083223    0.5573797003
 H   -0.0534165004    1.8042801586   -0.9556422919
 H   -0.9075723234    1.8012157769    0.5970692750
 H   -0.0534678030   -0.3170698604   -2.0832358713
 H   -0.0053428819   -2.9552890214   -1.4199889352
 H    0.0584443268   -3.0282083747    1.3067335380
 H    0.9355438193    0.3280799127    2.6714867429
 H   -0.8315029093    0.3166984733    2.7083173495
 H    0.1016974869   -1.0778889637    4.3098030888