18

 C   -0.4045632362    1.4513446337    0.0123870581
 C    0.0335965377   -0.0352308427   -0.0373299729
 C    0.8241803418   -0.3424637577   -1.2865850186
 C    2.1461162999   -0.5076577547   -1.3114107910
 C    2.9737360083   -0.3676481158   -0.0863657319
 N    2.8576723760    0.9249934500    0.6180517775
 C    2.2727073427   -0.2891196305    1.2369139194
 C    0.7799428663   -0.4004000253    1.2470401219
 O    0.1945808990   -0.8071851228    2.2269192829
 H    0.4703161974    2.1033182840    0.0500147191
 H   -0.9902583924    1.7011805142   -0.8776173632
 H   -1.0257627582    1.6288333330    0.8948710150
 H   -0.8769974516   -0.6454561398   -0.0246323827
 H    0.2523876558   -0.4039658551   -2.2094627017
 H    2.6621420718   -0.7206144373   -2.2427075258
 H    3.9497597189   -0.8451751812   -0.0933047909
 H    3.7280506086    1.1386321357    1.1005401321
 H    2.7503299844   -0.7064814178    2.1181699925