20

 C    0.0654792129    1.4661696539    0.6776328090
 C   -0.1218595836    0.2140717613   -0.1903635697
 C   -1.4746180171   -0.4578259508   -0.0218004347
 C   -1.5540540934   -1.9512925647    0.0371657771
 N   -1.7649453036   -1.1649609970    1.2506772144
 C   -2.7024373402    0.2090993090   -0.5921934354
 O   -3.8232266816   -0.2207004162   -0.5024240894
 O   -2.3925487010    1.3412877309   -1.2622582706
 C   -3.5051533629    2.0101799039   -1.8697029355
 H    1.0700983542    1.8789070847    0.5452841038
 H   -0.6576247953    2.2397383036    0.4101075503
 H   -0.0628398028    1.2368260141    1.7409838773
 H    0.0245333210    0.4715065625   -1.2442412473
 H    0.6522224130   -0.5218251837    0.0612121609
 H   -2.4479064890   -2.4378832128   -0.3394737398
 H   -0.6249102746   -2.5011818008   -0.0890694388
 H   -0.9151955919   -1.1629703384    1.8121143670
 H   -3.0894582304    2.8873918280   -2.3656007691
 H   -3.9977637594    1.3564922557   -2.5938147613
 H   -4.2356668143    2.3062435968   -1.1129057581