20

 C   -0.0232436146    1.4780437869    0.0298564355
 C    0.0555274473   -0.0296662540   -0.0139896761
 C   -0.0032688544   -0.7117979100   -1.3852568120
 C   -1.1631720458   -1.7239004072   -1.2309240277
 C   -1.0922247980   -2.0805394128    0.2712087511
 C    0.1354780217   -2.9313964892    0.5399685156
 C    1.1338992830   -2.1657703545    0.9789918032
 C    0.6583380107   -0.7680168713    1.1548992734
 N   -0.8124533622   -0.7624695207    0.9385847941
 H    0.8601577709    1.9291091129   -0.4360442242
 H   -0.9085766422    1.8369619107   -0.5075077840
 H   -0.0886627633    1.8354523337    1.0610001202
 H   -0.1928210797    0.0192390549   -2.1753886982
 H    0.9312511144   -1.2241627983   -1.6306648403
 H   -2.1236959005   -1.2434868394   -1.4462594382
 H   -1.0680988433   -2.5956664794   -1.8853961032
 H   -2.0240495579   -2.5115459264    0.6488352256
 H    0.1937886060   -3.9826119116    0.2819671409
 H    2.1474603929   -2.4816195330    1.1933046771
 H    1.0258452350   -0.1846892615    1.9977590572