21

 C   -0.2470313233    1.5931417183    0.0249147176
 C   -0.0091243487    0.0796186675   -0.0005485368
 C    0.7547309100   -0.4424373044   -1.2347067817
 O    0.1999281377    0.0509969524   -2.4540204899
 C    2.2224072574    0.0427539364   -1.2521722665
 O    3.0258909250   -0.6151519286   -0.2952799844
 C    0.6947046054   -2.0019049141   -1.2152125647
 C    1.5380230651   -2.6409446826   -2.2920840993
 O    2.7388731417   -2.7739340170   -2.2044142414
 H    0.6873884151    2.1526816602    0.1212365786
 H   -0.7439206388    1.9357716366   -0.8870410557
 H   -0.8781824147    1.8613775025    0.8772282143
 H    0.5537210419   -0.2270719358    0.8880371950
 H   -0.9774631485   -0.4384601897    0.0528776088
 H   -0.7587942924   -0.0314672761   -2.4074542602
 H    2.6092534980   -0.0815505292   -2.2710224935
 H    2.2495718202    1.1122191215   -1.0271827772
 H    3.2741150492   -1.4636154704   -0.6904131587
 H    1.0651699571   -2.3480708511   -0.2461050916
 H   -0.3500528049   -2.3124533874   -1.3257748361
 H    1.0085991476   -2.9888302488   -3.2028650765