21

 C   -0.1269448516    1.6229427045    0.0485947136
 C   -0.0971253256    0.0908022116    0.0364619909
 C    0.7342700340   -0.5128553066    1.1704036402
 C    0.7920152535   -2.0763370333    1.1945157208
 C    2.3174754741   -2.3153074162    1.1882018595
 C    2.8777044400   -1.9475191755   -0.1979717701
 O    2.7503885094   -0.5143005471   -0.1886331839
 C    2.2517668267   -0.2121097391    1.1160022327
 O    2.8104437917   -1.2019281292    1.9558610862
 H    0.8725470422    2.0422208910   -0.1052080282
 H   -0.7713872223    2.0101421782   -0.7465082632
 H   -0.5079043300    2.0067721131    1.0018390172
 H   -1.1219801792   -0.2939749659    0.1099321459
 H    0.3033710262   -0.2592998348   -0.9214351508
 H    0.3569109122   -0.1426172336    2.1307157191
 H    0.3365434578   -2.4862945721    2.0983560425
 H    0.2984063425   -2.5272186877    0.3287491319
 H    2.6715346495   -3.2544104719    1.6105134372
 H    3.9330887192   -2.2223635289   -0.3078659528
 H    2.3016749142   -2.3758153320   -1.0253086248
 H    2.5828452154    0.7830189856    1.4108719261