17

 C   -0.0426319866    1.5574319560    0.0128497384
 C   -0.0265017674    0.0158238821    0.0077546490
 C   -1.4639591532   -0.5402868086   -0.0285774458
 N    0.7734693006   -0.5044265577   -1.0917344359
 C    1.8627768718   -1.2507118110   -0.6982288878
 O    2.6738873226   -1.7872952304   -1.4232559785
 C    1.8030166171   -1.2398685497    0.7974602709
 C    0.7464653620   -0.5313321450    1.1926604406
 H    0.9760197153    1.9526467924    0.0282553668
 H   -0.5493899947    1.9368929834   -0.8808743535
 H   -0.5792098961    1.9374519815    0.8879538815
 H   -1.9878714057   -0.1861342223   -0.9228013558
 H   -1.4533890393   -1.6328904979   -0.0424953064
 H   -2.0318688578   -0.2064780291    0.8456003618
 H    0.5651469998   -0.3457505732   -2.0632991682
 H    2.5372893070   -1.7497061219    1.4046613791
 H    0.4261629246   -0.3341999685    2.2085633238