15

 N   -0.0400599358    1.2814018650   -0.5682674038
 C   -0.0690287014   -0.0746146501   -0.2204775956
 C   -1.0571567165   -1.0199180762   -0.0540972447
 C   -2.5466571212   -0.9293105869   -0.2480517082
 C   -2.9661700311    0.2043827561   -1.0711914048
 N   -3.2760066949    1.1193630164   -1.7064601459
 N   -0.5147486446   -2.2102433087    0.3904030901
 C    0.7724205061   -2.0012206524    0.4848660920
 N    1.0981974653   -0.7213605942    0.1293797210
 H    0.4881017366    1.4527120433   -1.4188207563
 H   -0.9734184383    1.6502196259   -0.7060776166
 H   -2.9012218241   -1.8539439674   -0.7176478867
 H   -3.0713935232   -0.8590672278    0.7147756088
 H    1.5156267461   -2.7240322531    0.7849657631
 H    2.0042003971   -0.2857156398    0.1797751975