18

 C   -0.0224530351    1.5546844330    0.1361386830
 C    0.0444712035    0.0440335444    0.1710166760
 C    1.2828125257   -0.7322997953   -0.1656459863
 O    2.4634342139   -0.0312997334    0.2320317300
 C    2.0604917862   -0.1221288607    1.6263511392
 C    0.7383879238   -0.7891125172    1.2493693772
 C    0.0648353358   -1.8796879211    2.0234456615
 O   -0.6068135947   -1.3985790204    3.1827171316
 H    0.9661955498    1.9899242252    0.2974935313
 H   -0.3770041715    1.8983122817   -0.8412563439
 H   -0.7047585926    1.9500156670    0.8963761132
 H   -0.8537901233   -0.4632250946   -0.1811543655
 H    1.3786300855   -1.4775826011   -0.9480584580
 H    2.7323804483   -0.7926917403    2.1748489083
 H    2.0319189590    0.8554099981    2.1199937282
 H   -0.6212206387   -2.4335568804    1.3620526504
 H    0.8039915019   -2.5978748502    2.3965320669
 H   -1.2411615673   -0.7353075247    2.8910267670