17

 C   -0.2851241754    1.5382044268   -0.0382156653
 C    0.0458862095    0.0555830050   -0.0190960528
 C   -1.0844722603   -0.8985919983    0.4463947963
 O   -0.3141876318   -1.3329495518    1.5914492544
 C    0.8165462030   -0.5396718555    1.1759686382
 C    1.8940828820   -1.4381334108    0.5608977336
 O    2.7196894872   -2.0932018093    1.1222872482
 O    1.7533874849   -1.4373411419   -0.7965539297
 C    0.8371465983   -0.4262686286   -1.2454528967
 H    0.6219309872    2.1457910222   -0.1239135787
 H   -0.9325636234    1.7843459033   -0.8878160032
 H   -0.8076915327    1.8359316812    0.8756199151
 H   -2.0160524093   -0.4086608320    0.7510804924
 H   -1.3158544606   -1.7284197715   -0.2325946923
 H    1.2086801894    0.0947857595    1.9749873580
 H    0.2026668521   -0.8663632608   -2.0201573171
 H    1.4182174400    0.3882589425   -1.6934845103