16

 O   -0.3843216523    1.2278065150    0.7805327388
 N   -0.1682996727   -0.1476691099    0.5904480794
 C   -1.0746695726   -0.6517137541   -0.1349714256
 C   -2.3633760000   -0.1657473279   -0.7583039692
 C   -2.7814576763   -1.6773319532   -0.9179644723
 O   -3.2368274789   -2.0680915719   -2.1686520908
 C   -1.3011344682   -2.0861325165   -0.5470107438
 C   -3.7551761955   -2.0993969845    0.1540078855
 O   -4.7716595799   -2.6957564537   -0.1100706699
 H    0.3512534175    1.4730014345    1.3522357503
 H   -2.9927019220    0.4934680240   -0.1548257388
 H   -2.2249253414    0.2802705384   -1.7478264778
 H   -4.0806519030   -2.5242616164   -2.0142357487
 H   -0.7740461230   -2.3589433890   -1.4664872654
 H   -1.1459351119   -2.8668212350    0.2020265886
 H   -3.4855629300   -1.8324938798    1.1958530497