22

 C    0.0050917217    1.5961641821    0.0066947406
 C   -0.0137531780    0.0654531715    0.0002452118
 C   -1.4360042375   -0.5149541804   -0.0076094121
 C   -1.4653017566   -2.0224881501    0.0015750583
 C   -0.9320671288   -2.8703181371   -1.1948667665
 C   -1.8922904664   -3.9541651941   -0.7154181308
 C   -2.7312556738   -2.9798749406    0.0174658289
 N   -1.9321206338   -3.9692741165    0.7922961091
 C   -0.9951955361   -2.8729310740    1.2008651890
 H    1.0288114240    1.9829441132    0.0155894194
 H   -0.4970125119    2.0017247875   -0.8787773601
 H   -0.5094819163    1.9943367691    0.8883112723
 H    0.5337534643   -0.3049012093   -0.8756236520
 H    0.5267106463   -0.3112830855    0.8782774676
 H   -1.9858249219   -0.1376388068    0.8661300398
 H   -1.9754228323   -0.1433284866   -0.8900075907
 H   -1.2593074690   -2.4620694455   -2.1556457836
 H    0.1418014402   -3.0857861038   -1.2298680598
 H   -2.1796784153   -4.8759009054   -1.2037954165
 H   -3.7992911885   -2.8374718606    0.1202964643
 H    0.0627898549   -3.1564133403    1.2617510152
 H   -1.3290978254   -2.4792350465    2.1655938159