18

 O    0.0163996096    0.2116508229   -0.7203542607
 C   -0.0054632351    1.3546549518   -0.3462022706
 C   -1.0815997226    2.3660071235   -0.0579901059
 C   -2.4145890448    2.4431705014   -0.7659760889
 C   -2.3677926544    2.0779754296    0.6842227843
 C   -0.0189370074    3.4612110218    0.1860921809
 C    1.0607688488    2.3821795540   -0.0363945225
 C    2.3422613527    2.0981212904    0.6634978848
 N    2.3367383474    2.5339792681   -0.7336761594
 H   -2.7696788962    3.4310346177   -1.0394766743
 H   -2.6244841249    1.6611539006   -1.4881785799
 H   -2.5509705125    1.0457125862    0.9634218659
 H   -2.6879009801    2.8153539761    1.4128923969
 H   -0.0019061040    4.2512217551   -0.5685642796
 H   -0.0262650304    3.9094536211    1.1825566961
 H    2.7258249482    2.8294886201    1.3697720633
 H    2.5663136941    1.0597268733    0.8948195571
 H    2.4701133214    1.7330970463   -1.3502096875