14

 C   -0.0248002577    1.3769148480    0.0303366671
 O    0.0455022291   -0.0525465863   -0.0251043852
 C    0.6346370881   -0.5465850008   -1.1107146347
 N    1.1649986315    0.1130333624   -2.1197139180
 C    1.6100616215   -0.9077647514   -2.9221988286
 N    2.1900481366   -0.6478744924   -4.1491120054
 N    1.3976287722   -2.1317317850   -2.4725458772
 N    0.7498257479   -1.8726678820   -1.2800647707
 H    0.9781824159    1.8120076666    0.0245979481
 H   -0.5860150594    1.7678255759   -0.8225189074
 H   -0.5365452946    1.6098807219    0.9642125151
 H    2.6769737831    0.2361330363   -4.1745920828
 H    2.7526830813   -1.4128184524   -4.4932820748
 H    0.4359064946   -2.6208218406   -0.6879702755