21

 C    0.9367415430    0.6202537943    0.1777667384
 O    0.4121673909   -0.6794627534    0.3146128274
 C   -0.9885070480   -0.7331035991    0.1578912834
 C   -1.4537733225   -2.1476018538    0.4344127411
 O   -1.3992866028   -2.3827258131    1.8308991877
 C   -1.3908268247   -3.7498932083    2.1726174865
 C   -0.0151570896   -4.4256673526    2.0377464303
 C    1.1956031533   -3.5491240837    2.2715731310
 O    0.0535107984   -5.6107760093    1.8079478672
 H    2.0189176368    0.5511650461    0.3094974622
 H    0.7258756486    1.0418053293   -0.8177554133
 H    0.5279771707    1.3065369984    0.9354895807
 H   -1.4890493955   -0.0413350988    0.8543625788
 H   -1.2758620632   -0.4456014382   -0.8675405791
 H   -2.4827530172   -2.2824012001    0.0651721996
 H   -0.8052485872   -2.8462819735   -0.1144903026
 H   -1.6767114401   -3.8087947879    3.2312332393
 H   -2.1217068082   -4.3357943778    1.5984486320
 H    2.1041871417   -4.1380130774    2.1409074377
 H    1.1894682630   -2.6823743818    1.6038291424
 H    1.1599471425   -3.1455249691    3.2910646694