17

 C    0.0126742362    1.4973587542    0.0922022605
 C    1.3186602616    0.7404759990   -0.0089916909
 N    2.0649018583    0.3748795118    1.1907060178
 C    1.1932983939   -0.4150325002    1.9736181771
 C    1.1742247988   -1.0406719905    3.1937540372
 N   -0.0148880542   -1.7588741235    3.2316139970
 C   -0.7288547901   -1.5896934194    2.0668398845
 C    0.0036088649   -0.7450921047    1.2712040228
 C   -0.0032637181   -0.0212907525   -0.0225102598
 H   -0.2709354906    1.9338967960    1.0440571928
 H   -0.2879456742    2.0662361695   -0.7817188732
 H    1.9178308134    0.8549598507   -0.9059499336
 H    2.4866110986    1.1625675674    1.6674020964
 H    1.8654312793   -1.0632247261    4.0192997175
 H   -0.3026273159   -2.3387694366    3.9986396607
 H   -1.6810223719   -2.0750122969    1.9258465749
 H   -0.3831594600   -0.4770554480   -0.9294391118