16

 N   -0.2573557032    1.0487835850   -0.1171035548
 C   -0.3903573013   -0.2010415601   -0.2047445093
 O   -0.5707564004   -0.9358791207    0.9169016187
 C   -0.7927601568   -2.3272732311    0.7250571769
 C   -2.2033829264   -2.6078730335    0.3104827185
 C   -3.3456249524   -1.8497461197    0.3565886565
 N   -4.4228680456   -2.5583533692   -0.1280410088
 C   -3.9455216861   -3.7326130545   -0.4596403283
 N   -2.6031293194   -3.8192627175   -0.2183856100
 H   -0.1105351153    1.4495112386   -1.0410790515
 H   -0.3654459386   -0.8032024099   -1.1230267953
 H   -0.0799697110   -2.7338139358   -0.0101196347
 H   -0.5537528144   -2.7856409726    1.6911309908
 H   -3.4448312477   -0.8352634690    0.7091325058
 H   -4.5072516431   -4.5553531164   -0.8764322501
 H   -2.0165727385   -4.6183027838   -0.3940619645