16

 C    0.0260168350   -1.2253327639    0.0045422417
 C   -0.0016935310   -0.0223646177   -0.0227963035
 C   -0.0362125833    1.4090041242   -0.0594547087
 C   -1.0989426369    2.2190876436    0.7536641362
 C   -0.9318683244    3.3056186496   -0.3022393263
 C    0.5510695736    3.3310527503   -0.7068312488
 C    1.2657019612    2.2596381952    0.1085057028
 C   -0.3953643474    2.3293992246   -1.3179599585
 H    0.0514418676   -2.2862700723    0.0311753688
 H   -2.0819587004    1.7464392205    0.6923995490
 H   -0.8540601922    2.4394147178    1.7987697280
 H   -1.5729338439    4.1576415384   -0.4855932941
 H    0.9826961698    4.2014734786   -1.1828482831
 H    1.5784760408    2.4811218958    1.1350891340
 H    2.0959842812    1.8180961792   -0.4474997261
 H   -0.6692430697    2.0976683661   -2.3363648214