18

 O   -0.1194512554    0.0288630693    0.1908624756
 C   -0.0059254836    1.2134994266   -0.0400910496
 C    1.2667974726    1.9340472107   -0.0272226049
 C    1.3981767317    3.2491052628   -0.2690649288
 C    2.8029412061    3.6898882769   -0.1531205250
 C    3.2990932189    4.9225180618   -0.8265283331
 N    3.1403034167    4.9043369183    0.6311616264
 C    3.6329685567    2.4147720049    0.0565244552
 C    2.5946177333    1.2810851944    0.2887184641
 H   -0.8935703478    1.8404098686   -0.2827226133
 H    0.5822619610    3.9286957717   -0.4985013428
 H    4.3296342059    4.9488374711   -1.1722532147
 H    2.6041228056    5.5011979021   -1.4307869581
 H    2.2914132704    5.3976335674    0.9011276042
 H    4.2352440149    2.2076065173   -0.8329876136
 H    4.3192641732    2.5415386992    0.8960180963
 H    2.5994607625    0.9071848417    1.3188072044
 H    2.7723697575    0.4094954851   -0.3481183223