25

 C    0.2071958207    1.4002918892    0.4487567456
 C   -0.0645516302   -0.1010219499    0.3311881979
 C   -1.3647030886   -0.4182579954   -0.4229696918
 C   -1.6032889350   -1.9051916227   -0.5332137082
 O   -1.9958568583   -2.6026297218    0.6596039983
 C   -2.9053532410   -2.5987817329   -0.4589990432
 C   -4.2010165200   -1.8446708509   -0.2437365071
 C   -3.0387901422   -3.9551119476   -1.1391305858
 C   -3.7639426287   -4.9990127916   -0.2800472680
 H    1.1369840556    1.5954113753    0.9920625964
 H    0.2941767327    1.8674859787   -0.5388366377
 H   -0.6028732431    1.9089740035    0.9833367806
 H    0.7773173658   -0.5893464760   -0.1771513805
 H   -0.1225014437   -0.5510315165    1.3291089049
 H   -2.2039434326    0.0693523066    0.0825111083
 H   -1.3156885799    0.0033357889   -1.4368330848
 H   -0.8194036808   -2.4259387925   -1.0917206846
 H   -4.0416609165   -0.9178241631    0.3080750064
 H   -4.6701478955   -1.6039442000   -1.2042021509
 H   -4.9088346866   -2.4518460769    0.3289366766
 H   -3.5610511608   -3.8246906653   -2.0959065966
 H   -2.0347197566   -4.3233185498   -1.3754194000
 H   -3.7560209491   -5.9765349985   -0.7712897013
 H   -3.2685909057   -5.1011835713    0.6900463141
 H   -4.8096180799   -4.7308378197   -0.1004869789