19

 C    0.0061937882    1.4468601867    0.0278405680
 N    0.0251007958    0.0004617078    0.0227823282
 C    0.0082393332   -0.8253253317   -1.0630364870
 C   -0.0334706066   -0.3562645447   -2.4796193066
 N    0.0338996120   -2.0967705405   -0.6951658161
 C    0.0679164326   -2.0786653373    0.6670025967
 O    0.1008904085   -3.2258293755    1.3903140223
 C    0.0642015561   -0.8033683792    1.1666158964
 C    0.0928852253   -0.2793212290    2.5592699731
 H    0.9014997395    1.8508151767    0.5126435785
 H   -0.0247653096    1.8134013729   -0.9983812337
 H   -0.8736126893    1.8274265928    0.5578387267
 H    0.8370229997    0.2556367019   -2.7448342976
 H   -0.0390023940   -1.2357302470   -3.1247448146
 H   -0.9310307375    0.2339135022   -2.7000362878
 H    0.0932478831   -3.9441513655    0.7467780288
 H    0.9737051036    0.3443697418    2.7620937257
 H   -0.7931275145    0.3200239419    2.8077844441
 H    0.1224006440   -1.1241087042    3.2512770249