16

 C    0.2920445322    1.3807622486    0.1679061224
 N    0.0959900036   -0.0554994836    0.0578885079
 C   -0.0436329385   -0.7702793971   -1.1124316280
 C   -0.2019283620   -2.0777609626   -0.7389061022
 N   -0.1612055660   -2.1915325017    0.6287101291
 C    0.0170290422   -0.9670818147    1.0755552651
 C    0.0994826122   -0.6150148199    2.5332682992
 C    1.3627994746    0.0250502767    2.9143762690
 N    2.3524997530    0.5529798281    3.1920205088
 H    1.2521321316    1.6111520143    0.6369196521
 H    0.2728564892    1.8149927869   -0.8321379022
 H   -0.5079368469    1.8391964578    0.7577310130
 H   -0.0141770374   -0.2822356424   -2.0728248038
 H   -0.3416338609   -2.9397433788   -1.3727332907
 H   -0.7219215554    0.0461570351    2.8397051219
 H   -0.0143313015   -1.5493733767    3.0891040583