17

 O   -0.2626800126    0.2529348453    0.8382819604
 C   -0.1982662314    1.3179052344    0.2941573569
 C   -1.1879929780    2.3147447054   -0.3480188925
 C    0.0254416213    3.2850915970   -0.3980476204
 C    0.2074092399    4.3246423428    0.6941123313
 N   -0.0439880285    3.7721528228    2.0377512548
 C    1.3434946011    3.8897965613    1.5594763622
 C    1.8900252860    2.5602427088    1.0400078552
 N    0.8944761189    2.1633408566    0.0459876534
 H   -1.5998769385    2.0138667265   -1.3128738334
 H   -1.9893064347    2.6104505845    0.3294968557
 H    0.2825075342    3.6915570202   -1.3808727969
 H    0.0100516718    5.3725068513    0.4948630354
 H   -0.2545080776    4.5227371801    2.6893480697
 H    2.0136414527    4.6034115967    2.0277881283
 H    2.8798289095    2.6985538372    0.5897199948
 H    1.9556760359    1.7891995690    1.8124784750