13

 C   -0.4152774842    1.6343078677   -0.0438048437
 C    0.0804435717    0.1894952022   -0.0025216201
 O    0.9519727384    0.0558569385    1.1007451443
 C   -1.0470583453   -0.7631258435    0.0858234197
 N   -1.9034799359   -1.5360646837    0.1551971631
 C    0.8618924162   -0.1454684893   -1.3099673043
 O    0.7825793227    0.4765233336   -2.3303429130
 C    1.7674852141   -1.3039047154   -1.1718371527
 N    2.4537540982   -2.2256161697   -1.0427667461
 H    0.4498012758    2.3003816407   -0.0623372606
 H   -1.0172453622    1.8054663873   -0.9365111173
 H   -1.0086001184    1.8380633400    0.8485413328
 H    1.1358370391   -0.8777215984    1.2673110778