23

 C   -0.5078456890    1.3296304234    0.1372228763
 C   -0.1761548037   -0.1496291583    0.0153229778
 C    0.6414182697   -0.4899349497   -1.2316056863
 C    1.2154392333   -1.8911086643   -1.1803724598
 C    1.7129311586   -2.4082717810   -2.5041514825
 C    1.2560053964   -2.5574155274   -0.0195297728
 C    1.7477673278   -3.9656026465    0.1861237050
 C    0.7728198662   -1.9056848967    1.2588327226
 O    0.5573195236   -0.5157016654    1.1768300367
 H    0.4116660643    1.9197279254    0.2035379828
 H   -1.0775538772    1.6702482278   -0.7328125477
 H   -1.0997469285    1.5163991053    1.0372721841
 H   -1.1141236966   -0.7328537856   -0.0132043654
 H    0.0072753948   -0.3858122424   -2.1230833141
 H    1.4529682402    0.2434058044   -1.3516083887
 H    2.4288636438   -1.7009894629   -2.9431875584
 H    2.2080418759   -3.3779066573   -2.4366373637
 H    0.8892055169   -2.4977850180   -3.2248129058
 H    2.6701772004   -3.9799775504    0.7819065672
 H    1.0087204219   -4.5515453663    0.7484930294
 H    1.9431784861   -4.4957777518   -0.7465573041
 H   -0.1474668008   -2.4193983280    1.6005854293
 H    1.5187527557   -2.0505347043    2.0512053081