24

 C    2.7679325062    2.5318668542   -1.7952559663
 C    2.3835057596    1.0578539716   -1.7059608702
 C    3.5873209455    0.0726966067   -1.7959038472
 C    3.5573526290   -0.0798355856   -0.2455118610
 C    2.1299709948    0.5456818873   -0.2570208694
 C    3.7251915671   -1.4700142459    0.3086596695
 C    5.0547024963   -1.9760761520    0.7641430152
 N    3.9755641799   -1.7700394369    1.7215704100
 C    4.1211244441   -0.6882467753    2.6836647041
 H    3.5766237336    2.7791104947   -1.0975082765
 H    3.1107289823    2.7906279179   -2.8032370470
 H    1.9158681315    3.1771828364   -1.5544320145
 H    1.5729792539    0.8521260344   -2.4115793215
 H    3.3174540623   -0.8626899653   -2.2964712540
 H    4.5111298735    0.4498226200   -2.2439384657
 H    4.2745033193    0.6054755597    0.2124482432
 H    1.9060869213    1.2977634588    0.5052590310
 H    1.3541179474   -0.2254233580   -0.2194885197
 H    3.0468542283   -2.1926148396   -0.1490364572
 H    5.3560408759   -3.0063307060    0.5903503342
 H    5.8767033925   -1.2592064021    0.7629255961
 H    4.7012365722    0.1764761471    2.3247562839
 H    3.1303307611   -0.3343097273    2.9868788644
 H    4.6261767724   -1.0797107246    3.5728848286