18

 C   -0.1906382904    1.5527969090    0.1336322119
 C    0.0854840850    0.0631529868    0.0576256254
 O    1.1976315740   -0.4011747510    0.0196561934
 C   -1.1564238140   -0.8299704552   -0.0068240190
 C   -1.6666930597   -0.9971967625   -1.4796481460
 N   -1.3787623442   -2.3952615832   -1.8026089467
 C   -0.9297859649   -2.9338377257   -0.7440289907
 C   -0.5008737367   -4.3487423299   -0.5741967903
 O   -0.8232712956   -2.1651031122    0.3810026853
 H    0.7298308409    2.1109473734   -0.0396133497
 H   -0.9553806672    1.8551559593   -0.5902861490
 H   -0.5803264697    1.7992119188    1.1287870326
 H   -1.9317158764   -0.4521421028    0.6667342913
 H   -2.7400494753   -0.7976332829   -1.5700332314
 H   -1.1496225720   -0.3306442780   -2.1784595536
 H   -0.6500776366   -4.8927493530   -1.5059789257
 H    0.5548974783   -4.3849385358   -0.2888018863
 H   -1.0733025155   -4.8242629251    0.2282379986