21

 C   -0.0386103834    1.4486203370   -0.0511154827
 C    1.3453164943    0.8102560053   -0.0135618758
 C    2.1755746543    0.4488560636   -1.2348856594
 C    2.2868476500   -1.1006852551   -1.3108703419
 C    0.9055732358   -1.7569454415   -1.0005012244
 C    0.7108443050   -2.2378032755    0.4759430772
 C   -0.0741939257   -1.0627261319    1.1446542506
 C    0.0871492468   -0.0278524553    0.0561621897
 O   -0.1021493361   -0.7436669072   -1.1485515990
 H   -0.3445841563    2.0117150611    0.8241751233
 H   -0.4141492716    1.8359343346   -0.9928320901
 H    1.8930143014    0.9437248463    0.9157763910
 H    1.6971156229    0.8199899069   -2.1446163389
 H    3.1721541499    0.8979605951   -1.1931313336
 H    2.6302417886   -1.3996490385   -2.3067779669
 H    3.0424119634   -1.4563025513   -0.6010219431
 H    0.6808881835   -2.5484779298   -1.7181629454
 H    0.1387571436   -3.1680563984    0.5096215546
 H    1.6687951864   -2.4223458241    0.9688377135
 H   -1.1239540726   -1.3292680449    1.3014237500
 H    0.3509616299   -0.7516807965    2.1016096512