19

 C   -0.1758486512    1.5974465166   -0.0179699900
 C    0.0251538287    0.0912006243    0.0216571562
 C    1.2012732776   -0.6019997482   -0.7476778511
 C    2.1703181429   -0.0726021812    0.3482744138
 C    0.9187520927   -0.5906561404    1.1135113657
 C    0.9643153083   -1.8524070184    0.1760422655
 N   -0.2663283435   -2.6071848320   -0.0061734417
 C    2.1125084682   -2.7552505880    0.3558349459
 N    2.9543562924   -3.5385223893    0.4883972334
 H    0.7387782212    2.1797966002    0.1150984081
 H   -0.6169703221    1.8906116798   -0.9769865598
 H   -0.8777656215    1.9017644530    0.7662296989
 H   -0.9279774721   -0.4167375860   -0.1198959033
 H    1.3709164026   -0.6416444397   -1.8250594833
 H    3.1033131635   -0.6196079993    0.4932183694
 H    2.3460605096    1.0004143691    0.3684423217
 H    0.7609533670   -0.6171340712    2.1930964158
 H   -0.1806511771   -3.2200590322   -0.8121435576
 H   -0.4247234773   -3.2103580471    0.7960959323