14

 C   -0.0262216719    1.4690440273    0.0646015105
 C    0.0167510462   -0.0358817160    0.0057645747
 O    0.0504494446   -0.7350262471    1.0162460647
 C    0.0200842957   -0.7047785924   -1.2877552977
 N   -0.0121092753   -0.1393062390   -2.5058754022
 N    0.0083617389   -1.1743517705   -3.3099529217
 N    0.0515663560   -2.3979399801   -2.7567780236
 C    0.0596354910   -2.1148597754   -1.4590793505
 O    0.0989521955   -3.0384016712   -0.5083083575
 H    0.8355365249    1.8904003644   -0.4632484333
 H   -0.9195252982    1.8402329768   -0.4481228352
 H   -0.0262205457    1.7946384335    1.1049712647
 H   -0.0076225840   -1.0646713409   -4.3115601793
 H    0.0946035624   -2.5360788495    0.3329721464