15

 C   -0.2054008361    1.5248359159    0.0660032392
 C    0.0775119822    0.0158648576    0.0054244469
 C    0.8077351226   -0.4804202359    1.2109784753
 N    1.9713767348   -0.0357734989    1.6696753537
 C    2.1784825452   -0.8114524886    2.7674494297
 O    3.2659241035   -0.6857587497    3.5398956603
 N    1.2442246626   -1.7040826951    3.0365531020
 N    0.3686286509   -1.4662873523    2.0139784015
 H    0.7275887295    2.0798511426    0.1879225889
 H   -0.6945276981    1.8604560222   -0.8527005216
 H   -0.8564140347    1.7695861539    0.9105436610
 H   -0.8577326815   -0.5450896394   -0.1034983929
 H    0.6809789661   -0.2061266067   -0.8827096722
 H    3.7976155250    0.0178039604    3.1492225786
 H   -0.4736652419   -2.0127397057    1.9462570096