17

 O   -0.6827753452    0.7336354526   -0.6193778158
 C    0.3147269233    0.8500805911    0.0471069852
 C    1.2714058124    2.0114937189   -0.0518767706
 C    0.8823926047    3.2038006409   -0.9633354529
 C    0.9359942831    4.1683463922    0.2502153738
 C   -0.4085926061    4.3455144471    1.0096775611
 C   -0.0205541360    3.1560447394    1.9094342849
 O   -0.5421655369    2.6092953258    2.8366738878
 C    1.3312838969    2.9704729688    1.1998035352
 H    0.5898798241    0.0863601206    0.8083083505
 H    2.2689114071    1.6072331110   -0.2556120197
 H    1.6227991521    3.4180467653   -1.7359911829
 H   -0.0962053799    3.0956366713   -1.4360728578
 H    1.5596643178    5.0556622648    0.1586184831
 H   -0.4764241602    5.2739629724    1.5869765875
 H   -1.3319274263    4.2283896123    0.4349210547
 H    2.2216316490    2.9167513955    1.8268171861