19

 C    0.2794125456    1.4645114670   -0.3395218870
 C    0.0713115787   -0.0125249490   -0.0489874882
 O    0.9108833479   -0.8767207551   -0.8730457813
 C    1.3543253827   -1.6175477531    0.2911207136
 C    2.7095269340   -1.1165166836    0.8369417972
 C    1.9493136908   -0.1440636536    1.7951946996
 C    0.5910372813   -0.6611972362    1.2506068322
 C   -1.3736656556   -0.3944666593   -0.3547189455
 O   -2.2238693830   -0.6120759153    0.4681670029
 H    1.3351106260    1.7310428714   -0.2493809007
 H   -0.0390549740    1.6998408941   -1.3607837685
 H   -0.3049542355    2.0776742497    0.3542389737
 H    1.1824818519   -2.6912126456    0.1843744908
 H    3.2852631234   -1.8845873581    1.3598983648
 H    3.3422610733   -0.6582122701    0.0738648952
 H    2.0911338973   -0.3874694484    2.8502812799
 H    2.1481942349    0.9226414198    1.6696156006
 H   -0.1777685484   -0.9630152620    1.9588293132
 H   -1.5714038811   -0.4758866928   -1.4479536225