19

 C    0.0273539135    1.5323925929   -0.0002428365
 C    0.0131082736    0.0265940838   -0.0267438730
 C   -0.0648616073   -0.6941810271   -1.2165623497
 C   -0.0768358383   -2.0867867500   -1.2215505455
 C   -0.0097517364   -2.7754070973   -0.0163119387
 C    0.0694713564   -2.0942261814    1.1998013129
 C    0.1427143180   -2.8329506312    2.5140382370
 C    0.0797038981   -0.6929402398    1.1746999643
 O    0.1553574374    0.0480635644    2.3232726061
 H    0.9379734451    1.9149730045    0.4737690036
 H   -0.0309926235    1.9398551831   -1.0126862463
 H   -0.8123471724    1.9296393479    0.5805861340
 H   -0.1169940094   -0.1488377729   -2.1543724796
 H   -0.1380165250   -2.6294184319   -2.1583411402
 H   -0.0183659599   -3.8614098609   -0.0082407117
 H    1.0645928516   -2.6060303398    3.0673623668
 H   -0.7020475412   -2.5914444323    3.1740172886
 H    0.1240987120   -3.9132532631    2.3533552686
 H    0.1961122978   -0.5432830990    3.0805676993