22

 C   -0.1251393972    1.5419630905    0.1242496096
 C    0.0759192392    0.0355020361    0.0366523614
 C    0.9670060524   -0.5262094554   -1.1386518529
 C    1.6149391067    0.4647535988   -2.1035433155
 C    1.9638033682   -1.2940301560   -0.2477072496
 O    2.9461953088   -1.9652244818   -0.9691519275
 C    1.0062141604   -1.9377805350    0.7927783142
 N    0.7690119648   -0.5162294184    1.2579873515
 C    2.2203013883   -0.2750044355    0.8992745182
 H    0.8169720707    2.0945675727    0.1760452162
 H   -0.6753633970    1.9087233733   -0.7479437876
 H   -0.7036973326    1.7820031984    1.0208401439
 H   -0.9133364985   -0.4328184685    0.0067905390
 H    0.3937847682   -1.2484736410   -1.7313390710
 H    2.2334787348    1.2089228930   -1.5929239391
 H    2.2601372285   -0.0713852758   -2.8057470007
 H    0.8599621543    1.0043171160   -2.6840092038
 H    3.5438103613   -2.3955808953   -0.3492040027
 H    0.1158833138   -2.4706974607    0.4451266732
 H    1.5150783813   -2.5110531857    1.5733268643
 H    2.8666436186   -0.6615936445    1.6925588096
 H    2.4931959052    0.7563263849    0.6684279194