18

 C   -0.0477771037    1.5291909615   -0.0377576037
 C    0.0309681420    0.0222901719    0.0296516580
 C   -1.2870123933   -0.7733862828    0.2800516093
 C   -0.5445053139   -1.7918186884    1.2191405958
 C    0.6809388888   -0.8308186967    1.1751203151
 N    1.3400569183   -1.7214882350    0.1482002581
 C    0.9852590280   -0.7293814027   -0.9377948997
 C    0.2703148448   -2.6864105236    0.2902775722
 O    0.1159684391   -3.7392965289   -0.2517679450
 H    0.9506489762    1.9793126017   -0.0604047637
 H   -0.5785667189    1.8527079852   -0.9412430352
 H   -0.5833477872    1.9406910546    0.8244143302
 H   -1.9739317162   -0.1681798974    0.8772487084
 H   -1.8279607647   -1.1817492966   -0.5786296347
 H   -1.0733309335   -2.1821468911    2.0871296653
 H    1.2683854113   -0.4760658936    2.0193246489
 H    0.5703863055   -1.1884083703   -1.8405088660
 H    1.8653706073   -0.1367385677   -1.2057302834