16

 C   -0.1835684045    1.5948226726    0.2209682073
 C   -0.1504889990    0.0892833103    0.1845058735
 N    1.0431338510   -0.5516973371   -0.3375151825
 C    0.7460046266   -0.7205235452    1.0991987218
 C    1.6257222118   -0.0636700957    2.0331352748
 N    2.2908558536    0.4227241584    2.8455460248
 C    0.2001311052   -2.0850443411    1.4947164935
 N    0.3504704439   -2.4349962231    2.7913960547
 O   -0.3421958624   -2.7802638739    0.6539958867
 H    0.8005791162    2.0049082154    0.4577631759
 H   -0.4877890046    1.9795282519   -0.7577062609
 H   -0.9030816592    1.9502743005    0.9648806305
 H   -1.0954139850   -0.4108778975   -0.0185708189
 H    0.7847687691   -1.4396430191   -0.7728155265
 H    0.8601303082   -1.8631409740    3.4443064715
 H    0.0234969390   -3.3420595622    3.0809681740