15

 N    0.1425576648   -1.1204089709    0.1042140121
 C    0.0894285595    0.0331972217    0.0503735105
 C   -0.0255361139    1.4677637823   -0.0071230071
 C    0.2653432732    2.2468387687   -1.2531525525
 N    1.2160838578    2.2797564546   -0.1461632927
 C    1.1163033154    3.4175193225    0.8000655313
 C   -0.2275027984    3.3352454602    1.5044782058
 O   -1.3560060245    3.4464088282    0.6237211955
 C   -0.9299537851    2.1416950350    1.0116495081
 H    0.6220828289    1.7181730946   -2.1320940099
 H   -0.3774078894    3.1028170802   -1.4308226140
 H    1.9229945878    3.3162245310    1.5337213529
 H    1.2548583436    4.3641082213    0.2687836530
 H   -0.3639540647    3.7499853889    2.5003561396
 H   -1.6298406350    1.5470606518    1.5894692774