23

 O   -0.0772322888    1.4398859510    0.0807241536
 C    0.0105336199    0.0234281605    0.1588643074
 C   -1.3796239063   -0.5438340309   -0.0966941668
 C   -1.4301530381   -2.0732830314   -0.0095702292
 O   -0.9665545329   -2.5385653659    1.2579474333
 C   -2.8240641809   -2.6209131873   -0.3517626983
 C   -2.9051625949   -4.1322391903   -0.3555756570
 C   -3.2367282449   -4.8960639234    0.8985048598
 C   -4.2372410662   -4.8297151204   -0.2290278132
 H    0.7878419112    1.8038402782    0.2895321344
 H    0.7144430790   -0.3738666103   -0.5914655268
 H    0.3646275025   -0.3080904859    1.1446152450
 H   -2.0769256799   -0.1102228418    0.6338289669
 H   -1.7214511546   -0.2164049290   -1.0857177410
 H   -0.7083008565   -2.4931806030   -0.7238094446
 H   -1.5963898966   -2.2414980960    1.9243656930
 H   -3.5534613185   -2.2136666172    0.3647908515
 H   -3.1162090125   -2.2290159250   -1.3353286355
 H   -2.1864073111   -4.6095235822   -1.0179239490
 H   -2.7245405847   -5.8332280705    1.0849482163
 H   -3.4498882255   -4.3266430856    1.7971192849
 H   -5.1199908025   -4.2136895581   -0.0892946317
 H   -4.4117314972   -5.7222580755   -0.8197339430