17

 O   -0.7183051270    0.8519315338    0.6517976418
 C   -0.0935269460    1.7837515998    0.2245617534
 C    1.3190197128    1.6632027927   -0.3539949441
 C    1.5217632368    2.5377602633   -1.4994832497
 C    1.6246506269    3.2760440520   -2.4448731031
 C    1.7930705087    4.1811710431   -3.5774924445
 C    2.5876230872    5.4270485711   -3.2231339065
 C    2.3594041953    6.7016194711   -3.9121624649
 O    1.8716230264    6.4805823047   -2.5863662373
 H   -0.4961522479    2.8195478282    0.2311937468
 H    2.0136554824    1.9347361630    0.4561252410
 H    1.5030718809    0.6099972035   -0.5900240021
 H    2.3046861083    3.6568687151   -4.3961908574
 H    0.8139836131    4.4899015991   -3.9630674670
 H    3.5737968615    5.2357466447   -2.7990201665
 H    3.1698221266    7.4232421478   -4.0015507575
 H    1.5948401537    6.7647009969   -4.6858615222