18

 C   -0.0797517397    1.6400992373    0.1643766819
 C   -0.0299761244    0.1286063312    0.0014331941
 O   -1.3131423339   -0.4537493804    0.1311920666
 C    0.7248494823   -0.4804147951   -1.2293599449
 C    1.3151320446    0.4194376673   -2.2955410582
 O    2.0909382893   -0.4183277139   -3.1417646786
 N    1.7017311175   -1.0224768220   -0.2711090296
 C    1.0412666498   -0.6154201114    0.8553692570
 O    1.1944701289   -0.8041419837    2.0346647631
 H    0.9027071499    2.1012693092    0.0289778859
 H   -0.7835796276    2.0785101359   -0.5493562951
 H   -0.4219533560    1.8825334465    1.1757437344
 H   -1.5122851912   -0.4938838002    1.0744543325
 H    0.1185562788   -1.2592581647   -1.7023538065
 H    0.4996909179    0.9121811210   -2.8482160662
 H    1.9359595655    1.1995414937   -1.8323075520
 H    2.5184808722    0.1313456746   -3.8049367170
 H    2.4433057462   -1.6942333955   -0.4060148973