16

 N    0.0015598042    1.3827000216    0.2395512877
 C   -0.0688032798    0.0162036765    0.0450230579
 C   -1.1368604577   -0.8270793074   -0.0947431660
 C   -0.6318204714   -2.1735290203   -0.1319498125
 C    0.7219090757   -2.1388783272   -0.0300133320
 N    1.7338110397   -3.1202501204   -0.0636256979
 N    1.0969796207   -0.7673863555    0.0670913066
 C    2.3981740163   -0.3111149720    0.0222219706
 O    2.7239481567    0.8583600925    0.0196725030
 H    0.9057741292    1.7784721333    0.0142284714
 H   -0.7809118751    1.8892240430   -0.1463767976
 H   -2.1722132857   -0.5265944755   -0.1332500553
 H   -1.2257473239   -3.0713973282   -0.2197432255
 H    1.8855625442   -3.5651409609    0.8365979990
 H    1.5282153909   -3.8437358544   -0.7412378870
 H    3.1123094059   -1.1453223749   -0.0217671924