17

 O   -0.0629492674    0.0898140204    0.5893525914
 C   -0.0573989465    1.2168398448    0.1721645004
 N   -1.2446211129    1.9694022973   -0.1941253404
 C   -1.6451504373    2.8195015594    0.9509099970
 C   -0.8526185463    3.3992762716   -0.1589478106
 C    0.6698241426    3.4466193364   -0.0802197055
 C    1.5001217591    3.7248486032    1.2116293611
 C    2.0269937271    2.2620025306    1.0929783336
 N    1.0600530202    2.0254414704   -0.0128636450
 H   -2.7098463029    3.0207222710    1.0136740284
 H   -1.1636140331    2.6353782642    1.9081630438
 H   -1.3439289327    4.0381133329   -0.8850552834
 H    1.0744649321    3.9519931249   -0.9630907163
 H    2.2464000447    4.5170987160    1.1363492139
 H    0.8833716744    3.8941735461    2.0968994506
 H    3.0640396000    2.1823279921    0.7573430000
 H    1.8713021888    1.5956268787    1.9446152912