18

 C    0.0369382786    1.4685614885   -0.0527687372
 N    0.1040361439    0.0187913971   -0.1011025264
 C    0.5971376501   -0.6122842420    0.9091842331
 C    1.1195840871   -0.0194945384    2.1514481691
 N    1.6104169831   -0.6787908049    3.1537999759
 N    1.6454023633   -2.0182862436    3.0491812488
 C    1.1995877846   -2.7333502044    1.9605401849
 C    1.3342616679   -4.2241943948    2.0571174047
 C    0.6843298810   -2.0608109631    0.9057283419
 H    1.0262376561    1.9427678087    0.0477189311
 H   -0.4041994663    1.8347287930   -0.9841599374
 H   -0.5878656368    1.8438632297    0.7733409409
 H    1.1135102331    1.0562102947    2.2839174613
 H    2.0338649356   -2.4839994639    3.8523727810
 H    2.3817223370   -4.5212995701    2.1866502056
 H    0.7710354921   -4.6198589313    2.9106197222
 H    0.9555035124   -4.6971151642    1.1501626269
 H    0.3252237772   -2.5934233509    0.0338932036