18

 C   -0.1000418154    1.4785650021   -0.0164166131
 N    0.0227539682    0.0254194388   -0.0021257401
 C    0.7072185848   -0.5029928454   -1.1647043493
 C    0.7143270996   -2.0474127531   -1.1444784990
 C    1.3618937948   -2.6109735625   -2.4357066518
 C    1.2486078632   -4.0624423796   -2.5507030017
 N    1.1428832538   -5.2086899835   -2.6444083021
 C    1.4142076674   -2.5322896802    0.0493590058
 N    1.9788621534   -2.8666912504    1.0006637815
 H    0.8606673583    2.0123785559   -0.1207004869
 H   -0.7427528406    1.7839105241   -0.8498368857
 H   -0.5765257820    1.8096055050    0.9098894127
 H    0.5090557154   -0.2669866400    0.8401031951
 H    0.1596545148   -0.1840998872   -2.0604567688
 H    1.7468832564   -0.1409377759   -1.2801327299
 H   -0.3242307878   -2.3888467506   -1.0827925208
 H    0.8695851216   -2.1535980968   -3.3006076000
 H    2.4192663839   -2.3298992906   -2.4784109660