19

 C   -0.0009169861    1.5711254113    0.0028978493
 C    1.5090877327    1.8635153579    0.0270798039
 C    2.1382259705    0.6030402816   -0.7061201284
 C    0.9578206625   -0.2361635300   -1.2191668846
 C    0.0494638096    0.0269261349    0.0045155126
 C    0.9783611713   -0.3463448693    1.2075221502
 O    1.0226086337    0.7229210797    2.1965446303
 C    2.0660502399    1.3371159423    1.4121437173
 C    2.4169256094    0.0246025331    0.6966218286
 H   -0.5146852613    1.9830173934    0.8725552931
 H   -0.4783818145    1.9451279579   -0.9080213318
 H    1.8128848383    2.8612381035   -0.2881071699
 H    2.9829353183    0.7700763632   -1.3727770463
 H    0.5163471031    0.1164224603   -2.1568006596
 H    1.2321425222   -1.2906621867   -1.3396345959
 H   -0.9204373184   -0.4725405738    0.0086613569
 H    0.7797550765   -1.3170172445    1.6649959926
 H    2.7279741204    1.9728513852    2.0017392088
 H    3.2543681918   -0.6297302300    0.9358599529