18

 C   -0.0304355529    1.5661850934    0.0108359420
 C    0.0154550621    0.0363812330    0.0024480798
 C    0.7149422462   -0.5051193258   -1.2516649262
 C    0.8474205391   -2.0170557751   -1.2674606512
 O    0.9067489930   -2.6817307961   -2.2755896692
 N    0.9165644239   -2.6216585491   -0.0137059026
 C    0.8522399374   -2.0306976932    1.2467927012
 O    0.9153740517   -2.7062775757    2.2474136332
 C    0.7197575522   -0.5186801300    1.2479091593
 H    0.9809611417    1.9888419773    0.0111999164
 H   -0.5530733010    1.9498126439   -0.8710251695
 H   -0.5496978153    1.9402103763    0.8987946573
 H   -1.0170820964   -0.3391109779    0.0024007486
 H    0.1994788537   -0.2188513153   -2.1713559306
 H    1.7307592566   -0.0890363544   -1.3170379701
 H    1.0139915489   -3.6305104437   -0.0193667181
 H    1.7358349224   -0.1033252034    1.3138621849
 H    0.2078595665   -0.2424030141    2.1726330149