19

 C   -0.0416676365    1.4969248756    0.1876524014
 C    0.0948527074   -0.0027943346    0.0940799149
 C    1.3388972884   -0.6686757962   -0.3172025148
 C    0.9147873813   -0.8314129173    1.1555958068
 C    1.7010643482   -0.0754999721    2.1601454074
 O    2.4375980696    0.8517756115    1.9056767872
 C    0.2853923954   -2.1499394050    1.5049876188
 C    0.3992311041   -2.6720880793    2.9264747381
 O   -0.3045492929   -2.7898995624    0.6580713122
 H    0.8907821637    1.9687429254    0.5000760149
 H   -0.3133748100    1.8920266632   -0.7974759495
 H   -0.8321520290    1.7829605902    0.8888239404
 H   -0.8126947087   -0.5438376363   -0.1581634836
 H    1.2701455050   -1.5782179505   -0.9018948632
 H    2.2251467952   -0.0576568156   -0.4508333250
 H    1.5738269008   -0.4050264067    3.2118266525
 H   -0.0675105323   -1.9826870808    3.6387240187
 H   -0.0989807133   -3.6403676589    2.9800788631
 H    1.4476064436   -2.7816992303    3.2248108397