19

 C    0.0072002086    1.6061648104   -0.0075204141
 C    0.0050821254    0.0745941864   -0.0197747660
 C    0.9730363069   -0.5020667028   -1.1258917060
 C    2.3047522309   -0.7104636988   -0.4037314812
 C    2.0722481016   -0.7403683357    0.9021244800
 C    2.5008802306   -0.3272637960    2.2914599667
 O    2.0828460268    1.0550782280    2.3724874128
 C    1.0965663336    0.0481568494    2.6044861312
 C    0.6120274405   -0.5614603674    1.2515632534
 H    1.0115734698    1.9967516297    0.1734267582
 H   -0.3546931755    2.0000471590   -0.9632320458
 H   -0.6450629816    1.9919351456    0.7828053078
 H   -1.0165747822   -0.2784185651   -0.1951806991
 H    0.5830407826   -1.4411424812   -1.5434340409
 H    1.0770157924    0.1898785839   -1.9704296784
 H    3.2586889011   -0.7466163390   -0.9165943705
 H    3.3209399111   -0.6314639848    2.9291950560
 H    0.5827074533    0.0755141567    3.5587177501
 H    0.1448550440   -1.5292439282    1.4828236959