21

 C   -0.0549579392    1.4076615143   -0.3656356277
 C   -0.2986932393   -0.1033220289   -0.3808171295
 C   -1.2708916821   -0.5462715093    0.7194142987
 N   -1.5060011787   -1.9801552872    0.7343915314
 C   -2.6683501904   -2.5482226340    0.2954472403
 O   -3.6068059535   -1.8929816664   -0.1246831201
 C   -2.7214990076   -4.0720868767    0.4097299307
 C   -3.6104398465   -4.6972030605   -0.6661551705
 H    0.6399912689    1.7051969605   -1.1562606486
 H   -0.9888483937    1.9595452817   -0.5172546039
 H    0.3700487499    1.7332515613    0.5905812421
 H   -0.7058941447   -0.4118041894   -1.3505239183
 H    0.6548423018   -0.6347255292   -0.2595907972
 H   -0.8939347837   -0.2307047864    1.7012472292
 H   -2.2477008860   -0.0795567098    0.5710821074
 H   -0.7549419454   -2.5857227735    1.0223622844
 H   -1.7101100039   -4.4949833921    0.3811217737
 H   -3.1234421768   -4.3031666933    1.4052299697
 H   -4.5897572804   -4.2147608442   -0.6646355188
 H   -3.1773306732   -4.5638640634   -1.6622025198
 H   -3.7396825755   -5.7689417235   -0.4913360831