18

 C    0.0006997418    1.4958918737    0.0696663445
 C    0.0499954285   -0.0083772816    0.0157806396
 C    0.6645583527   -0.7166891437   -1.2305015064
 C    0.4714283750   -2.1501478412   -0.7346433102
 C    0.5288730276   -2.0669608321    0.7663498234
 N    0.7038040053   -0.6716898382    1.1779180303
 C   -0.8294980344   -2.1717653595    0.0963180222
 C   -1.3116617771   -0.7580030292    0.0632227972
 O   -2.4202501038   -0.2976831903    0.0437560844
 H    1.0019206683    1.9321537631   -0.0125028512
 H   -0.6102740953    1.8838407736   -0.7499820897
 H   -0.4458437981    1.8266531737    1.0106972473
 H    0.1115998568   -0.4957386212   -2.1489885191
 H    1.7193029153   -0.4581541167   -1.3809447137
 H    0.7815424746   -3.0235084826   -1.2926569258
 H    0.9095921411   -2.8489803642    1.4089942267
 H    1.6973345449   -0.4422719168    1.1875274493
 H   -1.4760310333   -3.0329701968    0.1747252712