20

 C    0.4483168294    1.8871167637   -0.4185164420
 C    0.2055137367    0.3925671464   -0.4217683236
 C    0.5306512623   -0.5547628578   -1.5062005725
 C    1.8600202636   -0.2314226931   -2.1916543011
 C    2.5110304018   -0.4098715773   -0.7948737703
 C    3.4162464172    0.6623888526   -0.1801782544
 C    3.5529925087    0.4650343624    1.3149846239
 O    3.2759887041    1.2991816246    2.1381558996
 N    1.1833041528   -0.6836596732   -0.1279564052
 H    1.1413255202    2.2174759600   -1.1952469924
 H   -0.5030045186    2.3999669693   -0.5944950089
 H    0.8349624865    2.2192903486    0.5500791323
 H   -0.7135580221    0.1316056819    0.1012233658
 H   -0.1750523538   -1.2970682866   -1.8665141835
 H    2.1804153305   -0.9821816621   -2.9155273318
 H    1.9315642546    0.7550030727   -2.6601048323
 H    3.0457867297   -1.3645185566   -0.7589605663
 H    4.4150677513    0.5601826005   -0.6284536957
 H    3.0663137273    1.6783390333   -0.3610726412
 H    3.9355787479   -0.5359373395    1.6194175994