17

 O   -0.1034223532    0.0102195188   -0.2377830260
 C   -0.0046012180    1.1687701240    0.0743381165
 C    1.3026707952    1.9547676133    0.0583656337
 C    1.3341653273    2.8338459859   -1.1852515517
 C    1.3631912887    4.1578755803   -1.0353002742
 C    1.3875612367    4.6676374475    0.3907764401
 C    2.5093221610    3.9328275709    1.1668729443
 C    1.4013790223    2.8678312165    1.3019213285
 O    0.3998953389    3.9168929624    1.1699268091
 H   -0.8845603933    1.7726073644    0.3825042595
 H    2.1196067419    1.2239315905    0.0332904550
 H    1.3142893597    2.3458717808   -2.1544879607
 H    1.4042652005    4.8472313528   -1.8715591132
 H    1.2631883266    5.7463314499    0.4940474844
 H    3.4300576027    3.6856035509    0.6367185843
 H    2.7201634090    4.4008681057    2.1295460915
 H    1.3046360640    2.3165751754    2.2410733386