15

 O    0.1293313220    1.4355284760   -0.0770519128
 C    0.0266940169    0.0336169211    0.0769982071
 C   -1.3808925887   -0.4555854656   -0.0993871582
 C   -1.8224079945   -1.3873228404   -0.9635254662
 N   -3.1541212273   -1.7752351553   -1.0050779369
 C   -3.9632037918   -1.1806122639   -0.2023426545
 C   -3.5820333209   -0.1256540886    0.7445188922
 N   -4.3095171101    0.5380442207    1.5425172352
 O   -2.2298710138    0.1662890354    0.7582268920
 H   -0.4607528028    1.8391533680    0.5696223571
 H    0.6641425481   -0.4235455964   -0.6835842465
 H    0.3934331144   -0.2911552163    1.0645864081
 H   -1.1465075501   -1.8728760173   -1.6548569338
 H   -5.0146711136   -1.4650860823   -0.2118248432
 H   -5.2809293577    0.2425072148    1.4582022502