21

 C    0.9079014540   -0.1609724596    1.2497052123
 C    0.0470374447    0.1128017350    0.0012901405
 C    0.7355324053   -0.4025361181   -1.2840773249
 C    0.0470182549    0.0479967914   -2.5704647638
 O    0.0379274474    1.4782145629   -2.6997467149
 C    0.6686566104   -0.5566412415   -3.8310577747
 O    0.0411810386   -0.0601028512   -4.9922884287
 C   -1.2865321114   -0.4688196078    0.1503547977
 C   -2.3719269810   -0.9711759633    0.2757182745
 H    1.0704447271   -1.2351839109    1.3810298948
 H    1.8838130665    0.3256539075    1.1539290052
 H    0.4194492426    0.2191005992    2.1504250139
 H   -0.0698116350    1.1984586829   -0.1103930986
 H    1.7757517087   -0.0462279928   -1.2890591179
 H    0.7785169878   -1.4979873481   -1.2586706083
 H   -1.0129518067   -0.2256954823   -2.5376915658
 H    0.9540312421    1.7794722997   -2.6548945185
 H    1.7547996949   -0.3419051785   -3.8356288030
 H    0.5530064979   -1.6461613732   -3.8295341977
 H   -0.1270021207    0.8739948261   -4.8104248076
 H   -3.3370544282   -1.3998776176    0.3871846354