17

 C   -0.0612559115    1.5845119862   -0.1060805030
 C   -0.0214604396    0.0354449849    0.0037784407
 C    0.7075035076   -0.4558972580    1.2911117355
 C    0.0308774245   -0.0559799719    2.6004866531
 O    0.8135492851   -0.6301265618    3.6317796930
 C   -1.4018329768   -0.4880657500   -0.0257014526
 N   -2.4912149505   -0.8713787626   -0.0141337195
 C    0.7055458286   -0.4999124477   -1.1634970500
 N    1.3096318949   -0.8939966872   -2.0651427645
 H    0.9568423208    1.9763926512   -0.0492033660
 H   -0.5050461042    1.8889410042   -1.0554904903
 H   -0.6549388040    2.0055264517    0.7066808430
 H    0.7840646532   -1.5461186708    1.2623512256
 H    1.7264909598   -0.0579929797    1.2701647731
 H   -0.0113573994    1.0394622021    2.6974045310
 H   -1.0026459644   -0.4322099677    2.6169487593
 H    0.3855442658   -0.4495677929    4.4738176717