17

 C    0.3327494433    1.5768485378    0.1991521680
 O    1.3964396774    1.4044091350   -0.7631531079
 C    1.2919347286   -0.0326293560   -0.6808761211
 C    2.4486312799   -0.6535799853    0.0700129704
 O    2.7872854322   -0.0484258504    1.3115660380
 C    2.1920060141   -1.3634273535    1.3426323944
 C    0.8126933951   -1.4436152754    1.8808272519
 C   -0.2001367518   -0.7675153522    1.3327567211
 C   -0.0411660209    0.0696063682    0.1083386609
 H    0.7186138113    1.8778188975    1.1787136634
 H   -0.4212964047    2.2924213115   -0.1463356600
 H    1.2196285129   -0.4879674394   -1.6762468673
 H    3.3067080487   -0.9528737347   -0.5327633406
 H    2.8839762618   -2.1471623591    1.6456303670
 H    0.6555907020   -2.0646341007    2.7573725163
 H   -1.1943641116   -0.8364151892    1.7667161219
 H   -0.9018549082   -0.0637604840   -0.5532617865