16

 N    0.3640455364    0.3419259049   -1.0533910365
 C   -0.0403386048    0.1807094487    0.2346319642
 O    0.5912109643    0.5346010115    1.2118251859
 C   -1.3512084141   -0.5256906451    0.3793333046
 C   -2.2742281261   -0.5634715092    1.5937382913
 C   -2.7151997763   -2.0143479710    1.1500125824
 O   -4.0545700170   -2.2425266601    0.8241249974
 C   -1.7319598711   -1.8988791970   -0.0307378936
 O   -2.1667920658   -0.7605637119   -0.7898403630
 H    1.2139101284    0.8513578803   -1.2294129437
 H   -0.2747696954    0.1498178807   -1.8065046635
 H   -1.7264796674   -0.5515684807    2.5365455776
 H   -3.0623433236    0.1925734863    1.6052034818
 H   -2.4209483429   -2.7751058270    1.8760309657
 H   -4.2671984183   -1.6366137122    0.1029417522
 H   -1.1683392461   -2.6586339381   -0.5608719528