21

 C   -0.1866115244    1.5916305261    0.1180213764
 C   -0.0122668827    0.0677962563    0.0176536317
 C    0.6494114932   -0.3652044844   -1.3215613837
 C    1.9973528719    0.2436211274   -1.6269248921
 C    3.0862432022    0.1576535376   -0.8610002402
 C    3.1733820431   -0.5467063210    0.4707108413
 C    2.1436086480   -0.0648389718    1.5258810298
 C    0.7267136560   -0.5291972893    1.2164546614
 O    0.2028151710   -1.3891168757    1.8909402095
 H    0.7674255166    2.1174336858    0.0263778064
 H   -0.8390909856    1.9463272399   -0.6868755390
 H   -0.6473406276    1.8757748843    1.0692589897
 H   -1.0001645480   -0.4027915027    0.0515803557
 H    0.7243440475   -1.4615867477   -1.3226181806
 H   -0.0479239534   -0.1114513668   -2.1267663602
 H    2.0748811990    0.7895843541   -2.5640482826
 H    3.9986242831    0.6346396910   -1.2110825382
 H    3.0536352515   -1.6315141339    0.3403798004
 H    4.1736947711   -0.4035971488    0.8895020852
 H    2.4007749054   -0.4795473552    2.5037431471
 H    2.1840682622    1.0280119347    1.5883983720