20

 C    0.0426440820    1.5202483630    0.0374603272
 C   -0.0624364196    0.0239440004    0.0520004399
 N    1.1141346612   -0.7848402176   -0.2911819393
 C    0.4991092792   -0.9875578263    1.0285431540
 C    1.3350990664   -0.8199487014    2.2629664233
 C   -0.7853097856   -1.7963559876    0.9088218693
 O   -0.8428319605   -3.1742563290    0.7595381697
 C   -1.9902475449   -0.9680267413    1.2828645007
 C   -1.3427632000   -0.7843766266   -0.0788492660
 H    1.0251633810    1.8438735428    0.3905046657
 H   -0.0895662926    1.9099121049   -0.9786416485
 H   -0.7270573439    1.9742025683    0.6707485775
 H    0.8890532035   -1.5423264650   -0.9337783027
 H    2.0463670549    0.0009825570    2.1409468571
 H    0.7100709758   -0.6136947887    3.1389079413
 H    1.9138359734   -1.7282783102    2.4689288117
 H   -0.9089122674   -3.5720770371    1.6342938741
 H   -2.9307854891   -1.5121624508    1.2742604904
 H   -1.9275291554   -0.1827285791    2.0319965933
 H   -1.8779322185   -0.9905503156   -0.9992422785