14

 O    0.0040726750   -0.0414101290    0.1310146399
 C    0.0142400677    1.1590852618    0.0469640478
 C    1.2712770041    1.9803143212    0.0400333362
 C    2.5500647701    1.3145038117   -0.4065094854
 N    2.3474329687    1.6404482500    1.0036665487
 C    2.9162094419    2.9010613944    1.3512251307
 C    2.2655864154    3.9695202713    0.8635233383
 C    1.1658871770    3.4921555502   -0.0009323836
 O    0.3028987884    4.1208842837   -0.5725839618
 H   -0.9116528161    1.7589179189   -0.0560524577
 H    2.4686675532    0.2595528418   -0.6514057840
 H    3.2664692443    1.9080054183   -0.9673773311
 H    3.8123183300    2.8791196422    1.9594427526
 H    2.4996800002    5.0110500736    1.0292458393