17

 O    0.0184311075    0.4562201596   -1.1427186777
 C   -0.0287929393    1.2384993260   -0.2258662033
 C   -1.3512170621    1.8878371277    0.2021252393
 O   -1.2084621119    2.7200726640    1.3382867252
 C   -0.2634678379    3.7417417576    1.1059317426
 C    0.3894924938    4.2438823622    2.3990707354
 O    1.6637038970    3.6642103354    2.0337366208
 C    1.1474216373    3.1996437675    0.7672623983
 C    1.1725863528    1.6767457656    0.5972089206
 H   -1.7647093152    2.4363048328   -0.6604832668
 H   -2.0638090458    1.1003805349    0.4637612829
 H   -0.6687061693    4.5030969088    0.4263117456
 H    0.4507518470    5.3326569481    2.5063104954
 H   -0.0283425946    3.8019903320    3.3097449170
 H    1.6493795602    3.6996356422   -0.0696457784
 H    1.0724417318    1.2331201142    1.5952581830
 H    2.0912393787    1.3054102112    0.1405803801