19

 C   -0.2750936185    1.5296260025    0.0813415582
 C   -0.0341629311    0.0425263717    0.0041471370
 C   -1.2604475149   -0.9178374215   -0.0203309586
 C   -0.6772433432   -1.7287705251    1.1762187051
 C    0.5897576795   -0.8357205054    1.1607569564
 O    1.5915699497   -1.3526479338    0.2483046823
 C    1.1513402174   -0.4841419150   -0.8216131910
 C    1.1281357005   -0.3282432958    2.3968768178
 C    1.5480630951    0.1192232358    3.4317870041
 H    0.6503909888    2.0720082918    0.3002772271
 H   -0.6725201533    1.9078913163   -0.8685145476
 H   -1.0006871084    1.7745693508    0.8640308141
 H   -2.2025715637   -0.4162588301    0.2127153388
 H   -1.3895603804   -1.4723571887   -0.9533893632
 H   -1.2595955712   -1.6299015213    2.0947697889
 H   -0.4561473587   -2.7829088840    0.9992434527
 H    0.9095195689   -1.0410623037   -1.7353024884
 H    1.9110442534    0.2745076921   -1.0537859671
 H    1.9296495801    0.5046083535    4.3449091237