20

 C    0.0293689166    1.4160391755   -0.0251157017
 N    0.0159464845   -0.0256559552   -0.1097539098
 C   -1.2081948942   -0.8085828181   -0.0356638543
 C   -0.7499267822   -2.2271777431   -0.4373177558
 C    0.7461465711   -2.2549717289   -0.0863051541
 C    1.6468289361   -3.0922773949   -1.0060458838
 O    2.9925883617   -3.0481098594   -0.5987106717
 C    1.1484332297   -0.7805277361   -0.1235599824
 O    2.2928974767   -0.3480704701   -0.1640789032
 H    1.0680893846    1.7434090105   -0.0931791407
 H   -0.5470155673    1.8619234415   -0.8441317995
 H   -0.3967520779    1.7631199703    0.9249375907
 H   -1.6279680434   -0.7832625245    0.9810706542
 H   -1.9674633909   -0.4017586375   -0.7129832077
 H   -1.3285766962   -3.0046913510    0.0644972006
 H   -0.8778389374   -2.3608615397   -1.5172477267
 H    0.9054294381   -2.6020488650    0.9431516494
 H    1.3310220651   -4.1416800225   -0.9810564204
 H    1.5172021122   -2.7394909939   -2.0449878677
 H    3.2003102632   -2.1065249880   -0.4842369157