14

 O   -0.0882067733    1.3532311930    0.0840165594
 C    0.0730761570   -0.0061147838    0.0553213942
 C   -0.1982509585   -0.8496129637   -1.2124869676
 C    0.4901666332   -2.2050087937   -1.0334576851
 C    0.0066454337   -2.1210440910    0.4441065023
 C   -1.0629678501   -1.0513958667   -0.0054995332
 C    0.7888891684   -0.9111959585    1.0179451938
 O    1.4793280925   -0.7452382910    1.9823907357
 H    0.6031742542    1.7614486254   -0.4488997316
 H   -0.4508079439   -0.3218184849   -2.1246620750
 H   -0.0240733942   -2.9929640291   -1.5905233926
 H    1.5707836372   -2.2736993625   -1.2022545409
 H   -0.1703580900   -2.9988418149    1.0582169736
 H   -2.1069419562   -0.9008519687    0.2198824571