17

 C    0.0802362055    1.6736777668   -0.0569780565
 C    0.0604470654    0.1560661405    0.0801417764
 O    0.7008853953   -0.4359594124   -1.0709944419
 C    1.9120888627   -0.9827640749   -0.7689130043
 O    2.6111782598   -1.4857605320   -1.5968266298
 C    2.1782995040   -0.8247409813    0.7256102770
 C    0.8387694208   -0.3948152148    1.2768391279
 C    0.5486917801   -0.0562490528    2.6698273169
 O    0.1470832182   -1.3164068729    2.1212843561
 H    1.1042365369    2.0596297492   -0.0291784134
 H   -0.3704198144    1.9682823161   -1.0079641064
 H   -0.4873056524    2.1390759750    0.7540898521
 H   -0.9655887168   -0.2212619485    0.1081622927
 H    2.5322617234   -1.7607859244    1.1596203710
 H    2.9575059049   -0.0675409590    0.8631380070
 H    1.3460367673   -0.0986191756    3.4108533337
 H   -0.2637108407    0.6296451711    2.9076454015