12

 O   -0.2866104135    0.0525282276    0.0018513269
 C   -0.0646842156    1.2418060793    0.0083474463
 N    1.1799956989    1.8105939104    0.0012765988
 C    2.3803260200    1.1092653081   -0.0139346713
 N    3.5357747946    1.7737584851   -0.0182396946
 N    4.4326706977    0.7900407620   -0.0332403861
 N    3.9610661961   -0.4440281522   -0.0390634715
 C    2.6377692896   -0.2763430088   -0.0268700230
 H   -0.8580164381    2.0121904248    0.0209707517
 H    1.2548268132    2.8169868604    0.0081304019
 H    5.4206448601    0.9821673155   -0.0398203025
 H    1.9465045272   -1.0987558521   -0.0275453365