17

 C    0.1283772508    1.5829416650   -0.0428093385
 C   -0.0180855198    0.0863013348    0.1041995772
 O    0.6682083655   -0.6496363780   -0.9381196999
 C    1.3897252132   -1.4580352681   -0.0015346605
 C    2.8930637962   -1.3675893491   -0.1950734595
 O    3.6614028074   -2.2145833762    0.1751490538
 C    0.7948601904   -0.6644716232    1.2141916552
 C    1.7124314697    0.1050582199    2.0280017026
 C    2.4791699232    0.7413447378    2.7009218781
 H    1.1791761631    1.8812979750   -0.0188052036
 H   -0.3069860217    1.9009365060   -0.9950510859
 H   -0.3979849449    2.0988603971    0.7666785730
 H   -1.0787789697   -0.1953098092    0.1279569477
 H    1.0879562783   -2.5118704246   -0.0209602108
 H    3.2213142444   -0.4394007092   -0.7123401519
 H    0.1683410442   -1.2938095648    1.8502299517
 H    3.1588443498    1.2966263568    3.2992735613