16

 C    0.1117082167   -1.1860915937   -0.0050577409
 C    0.0998551774    0.0099989635    0.0960537950
 C    0.0568192218    1.4562741090    0.2338680118
 O    1.2784337187    2.0137738594   -0.2658709760
 C    1.3752358931    3.3904457421   -0.0899988675
 C    1.8313548204    3.9207518641    1.2612951645
 C    2.7747752371    3.9176455751    0.0889237752
 C    0.4236423919    4.1776093330   -0.8496519234
 N   -0.3553041746    4.7868461408   -1.4497782235
 H    0.1230032842   -2.2440727790   -0.0990178512
 H   -0.7979929816    1.8659152980   -0.3236672807
 H   -0.0769078632    1.7346416382    1.2899190581
 H    1.4269771432    4.8644322906    1.6073667551
 H    1.9793310066    3.1667819653    2.0258174981
 H    3.5483681594    3.1595453742    0.0630257588
 H    3.0251699188    4.8587448194   -0.3850122033