13

 C   -0.0259564223    1.5454422388    0.0213386877
 C   -0.0347238844    0.0490088673    0.0235063961
 C   -1.1418819688   -0.7226100873   -0.1009452266
 O   -2.3708275127   -0.2114399114   -0.2419775376
 N   -1.1113308372   -2.1111224274   -0.0945265376
 N   -0.0530441442   -2.7530942637    0.0273559997
 O    1.1416180236   -2.0552360407    0.1619327708
 C    1.2246032693   -0.6489650960    0.1684086971
 O    2.3132718291   -0.1605879500    0.2913610920
 H    0.6075017272    1.9191764175   -0.7897711949
 H   -1.0329350533    1.9462680500   -0.0944371918
 H    0.4086044756    1.9228764158    0.9527633785
 H   -2.9893397419   -0.9522454128   -0.3108711034