18

 C   -0.0511538439    1.4455359225    0.0688839693
 C    1.3994841206    1.9029502920    0.0145170855
 C    2.3034825604    1.4901947837    1.2120499798
 C    1.6325758071    0.3682544422    2.0066935067
 C    0.9520551003   -0.5745095091    1.0204213947
 C    1.3257811051   -0.4427227229   -0.4192711349
 C    2.2066949172    0.7778524466   -0.6784024140
 O    3.2700125741    0.8952532331    0.3032364651
 N   -0.0224713855   -0.0333029437    0.0551178233
 H   -0.5902723454    1.8023784456    0.9539001818
 H   -0.6070491386    1.7828465975   -0.8127466727
 H    1.5764058619    2.9145728222   -0.3494549841
 H    2.7534301205    2.2654132912    1.8378378587
 H    2.3919896596   -0.1738009958    2.5796159153
 H    0.9068133023    0.7715982340    2.7249283911
 H    0.6784637515   -1.5539751521    1.4042749633
 H    1.3718794373   -1.3024969118   -1.0789177811
 H    2.5739028356    0.8689192350   -1.7022270578