17

 C    0.0412785536    1.3922061639    0.0214843987
 O   -0.1089125145   -0.0054589642   -0.0991262725
 C    0.6506881979   -0.5948646342   -1.1428896432
 C    2.1416954269   -0.7167889976   -0.8049174174
 C    0.0264070522   -1.9354452954   -1.3836754875
 C   -1.0508543302   -2.5248959671   -0.8049207075
 O   -1.2276554735   -3.7282489288   -1.3483312521
 N   -0.1966571050   -3.8835738231   -2.3207330593
 N    0.5020810629   -2.8365894424   -2.3101343349
 H    1.0548667977    1.6815750148    0.3311374256
 H   -0.1944456419    1.9066082708   -0.9226733437
 H   -0.6630871895    1.7222095594    0.7884819270
 H    0.5454197483    0.0113000388   -2.0591629184
 H    2.6585226913   -1.2589691539   -1.6010180145
 H    2.6051547063    0.2682272400   -0.7051390280
 H    2.2686266171   -1.2649824555    0.1328469276
 H   -1.7364921594   -2.2108649954   -0.0377259801