21

 C   -0.1866262238    1.4552446425   -0.0998877443
 C   -0.0757222539   -0.0672154905    0.0274720718
 C    0.8074015664   -0.5488552003    1.1954597539
 C    0.1286664937   -0.3457045179    2.5638316716
 C    1.0635327548   -0.4522767502    3.7746964294
 C    1.2020442032   -2.0136222397    0.9892344560
 O    1.9961709766   -2.1058346353   -0.1873293825
 H    0.8001483685    1.9088614678   -0.2458023038
 H   -0.8072347059    1.7312985190   -0.9583962310
 H   -0.6345318947    1.9172354064    0.7861734825
 H   -1.0788027630   -0.5037822774    0.1373837068
 H    0.3400497877   -0.4738622139   -0.8992944683
 H    1.7408434274    0.0328829551    1.1785698992
 H   -0.3444710783    0.6422062927    2.5790493310
 H   -0.6923174213   -1.0696733540    2.6654821168
 H    1.5160873491   -1.4445841207    3.8654557427
 H    1.8787967307    0.2765062368    3.7060793877
 H    0.5210712925   -0.2561181669    4.7050925622
 H    1.7610883792   -2.3855883956    1.8603337798
 H    0.2882816278   -2.6258815326    0.9000577241
 H    2.1875960133   -3.0338587455   -0.3487880056