17

 O    0.2605728606    1.4242179436   -0.1617875456
 C    0.1034158686    0.0456686910   -0.0684692276
 C   -1.3245027056   -0.6214282427    0.0432405429
 C   -0.6518525536   -1.7497885176    0.8940278274
 C    0.0817054279   -2.6873206786   -0.0486962765
 C    0.7939992246   -2.1570637889   -1.0442178341
 C    0.9036960196   -0.6577830531   -1.1819161973
 C    0.3400784088   -0.6380348553    1.2861526611
 O    0.8404680680   -0.2506026798    2.3040627834
 H    0.2617591488    1.7807346842    0.7351854377
 H   -2.0076700595   -0.0032253200    0.6304175692
 H   -1.7834754304   -0.9364763172   -0.8951016025
 H   -1.2180011481   -2.2430871879    1.6815673993
 H    0.0110814597   -3.7576543058    0.1114062644
 H    1.3242613489   -2.7790420158   -1.7586212193
 H    0.5466984652   -0.3100106463   -2.1610005082
 H    1.9506478564   -0.3360274296   -1.1080755843