21

 C    0.0272002176    1.5150954440    0.1180067759
 C   -0.0330821034    0.0169343311   -0.0626820075
 C    0.7623015867   -0.6563881109   -1.2114843611
 C    1.0722193066   -1.6977034154   -0.1246004041
 O    0.8253692916   -0.6924259641    0.9056087845
 C   -0.0337609842   -2.7473889647    0.0563946502
 O    0.0225821469   -3.2336764142    1.3868821406
 C   -1.3984985734   -2.1009484952   -0.2856657739
 C   -1.4349147482   -0.5938449717    0.0723802568
 H    1.0636117772    1.8629965287    0.0999305618
 H   -0.5264123773    2.0196959779   -0.6808250302
 H   -0.4168520292    1.8068268422    1.0757764448
 H    0.2297055125   -0.9699112230   -2.1111226956
 H    1.6453662788   -0.0742705505   -1.4814864303
 H    2.0753626833   -2.1235206335   -0.0451222074
 H    0.1393661594   -3.6125741558   -0.5935508966
 H    0.1541581560   -2.4465861442    1.9344444908
 H   -1.5854341492   -2.2206377264   -1.3584331501
 H   -2.1867006541   -2.6528797034    0.2326521098
 H   -1.7583112022   -0.4412739271    1.1084123759
 H   -2.1513599253   -0.0660505535   -0.5675712240