16

 C   -0.0563214271    1.5321156033   -0.0111728883
 C   -0.0150491218    0.0279650851   -0.0218680934
 C   -0.0068930615   -0.7086460580   -1.1966561487
 C    0.0109334302   -2.1036059714   -1.1600703541
 C    0.0230016558   -2.7130508096    0.0854145354
 N    0.0256552238   -2.0404697676    1.2394672276
 C    0.0033961203   -0.7058294917    1.1880180209
 N   -0.0566906216   -0.0536575964    2.4097049241
 H    0.8480010349    1.9662697499    0.4381058287
 H   -0.1358187214    1.9301642794   -1.0259625797
 H   -0.9099213677    1.9048181469    0.5679022401
 H   -0.0202726083   -0.1860145482   -2.1492820899
 H    0.0153479067   -2.6934590090   -2.0687377567
 H    0.0360457038   -3.7973676521    0.1709109921
 H    0.1771628747   -0.6564910079    3.1854155407
 H    0.3661573192    0.8599700072    2.4605555911