24

 C   -0.1809648077    1.5630380919    0.3821757307
 C   -0.0817357450    0.0616150762    0.6447884235
 N   -1.3226562332   -0.5963156159    0.2490463192
 C   -1.4295716061   -1.0578841415   -1.1308084661
 C   -1.3586225755   -2.0394582210   -0.0111365202
 C   -0.1709417491   -2.9667190487    0.1503895900
 C    0.0145699984   -3.4373941821    1.5899769723
 O    1.0864609070   -4.3535568312    1.6245302964
 C    1.3461463170   -4.8439326525    2.9169369431
 H    0.7246446234    2.0761219542    0.7201939789
 H   -0.3053757970    1.7644286175   -0.6869361004
 H   -1.0414974951    1.9871384577    0.9069698853
 H    0.8047789327   -0.3409633242    0.1275248689
 H    0.0645783077   -0.1171366109    1.7170510919
 H   -2.3675336114   -0.8524750548   -1.6406996333
 H   -0.5443878423   -0.9745642079   -1.7626671146
 H   -2.2983340033   -2.4871449242    0.3151225597
 H   -0.3254553970   -3.8502464180   -0.4810017926
 H    0.7558147152   -2.4994647424   -0.1949057018
 H    0.2187096222   -2.5815558692    2.2558831248
 H   -0.9119172935   -3.9132069747    1.9578063309
 H    2.1898134715   -5.5346457722    2.8431512150
 H    1.6099072773   -4.0348575685    3.6170294633
 H    0.4802179538   -5.3842047675    3.3323500252