20

 C    0.0315035212    1.5675758623    0.0598005338
 C   -0.0830139658    0.0475750695   -0.0768935279
 C    0.7037785905   -0.5074262209   -1.2682551854
 O    2.1075700323   -0.2177861997   -1.1142877264
 C    2.8283890568   -1.3829840646   -1.1519952235
 N    4.0878511493   -1.4716452692   -1.0450664858
 C    1.8923916678   -2.5095717298   -1.3398701288
 C    2.3677353380   -3.9209548022   -1.4170562794
 C    0.6596526188   -2.0015012728   -1.4152363290
 H    1.0753388037    1.8664607601    0.1860423487
 H   -0.3585993039    2.0754175316   -0.8292809750
 H   -0.5341672016    1.9259933371    0.9246595463
 H    0.2760984904   -0.4481060547    0.8324344074
 H   -1.1333671321   -0.2439068636   -0.2039105747
 H    0.3663983965   -0.0030176258   -2.1870320946
 H    4.5059502916   -0.5483270016   -0.9226507184
 H    3.0782777147   -4.0400236418   -2.2415514224
 H    2.9093137183   -4.1924877521   -0.5049960355
 H    1.5383504075   -4.6178796257   -1.5584980883
 H   -0.2647841839   -2.5482171462   -1.5526351512