23

 C    0.0305286544    1.5335158040    0.0907621922
 C   -0.0377055451    0.0057330924    0.0041702230
 C   -1.4670613727   -0.5684522867    0.0002476067
 C   -2.2812182657   -0.1332776051   -1.2259571759
 C   -1.3952935979   -2.0897803542    0.0991724363
 O   -2.7334207547   -2.5998081860    0.2596618911
 C   -2.8517330856   -3.9428439117    0.3144078711
 C   -4.2983835384   -4.3438909585    0.4822631104
 O   -1.9174663715   -4.7000640046    0.2381755800
 H    1.0690776700    1.8731120233    0.1504432291
 H   -0.4215277084    2.0136301137   -0.7821301356
 H   -0.4911590913    1.9022578021    0.9810928525
 H    0.4877574806   -0.3334480184   -0.8992608986
 H    0.5115577503   -0.4221209082    0.8528162836
 H   -1.9811379843   -0.2096855884    0.9033683634
 H   -3.2659042325   -0.6068450931   -1.2222453718
 H   -2.4293108054    0.9495490033   -1.2490271007
 H   -1.7706266442   -0.4216241078   -2.1531296505
 H   -0.9506613156   -2.5318976672   -0.7997549001
 H   -0.7920694570   -2.4093024194    0.9553524009
 H   -4.8910512147   -3.9710213909   -0.3579912524
 H   -4.3700198130   -5.4295003209    0.5345886828
 H   -4.7090962372   -3.8975305677    1.3922908626