18

 C   -0.5827600635    1.4370475130    0.1961480298
 C    0.0433242497    0.0698041191    0.0337705082
 O    1.1961147748    0.0581253312   -0.8536377062
 C    1.9993857781   -0.6543411000    0.1020292564
 C    2.9080358705    0.2899287564    0.9335839680
 C    1.7703111429    0.3852982942    1.9394913627
 N    1.5903117377    0.9390072972    3.0645812132
 O    2.7073869997    1.7113786250    3.4282651037
 C    0.8718029184   -0.5673970355    1.1833746055
 H    0.1321353346    2.1570088011    0.6020884777
 H   -0.9358066790    1.8040592739   -0.7727377215
 H   -1.4408861292    1.3814087569    0.8744686840
 H   -0.7036221207   -0.6469986290   -0.3357639645
 H    2.4214669124   -1.5793011957   -0.2957442334
 H    3.8003837699   -0.1863299132    1.3547292046
 H    3.2004695742    1.2129061888    0.4273194398
 H    2.4481256503    2.0501946132    4.2920141911
 H    0.4306695493   -1.4017619766    1.7263999709