21

 O   -0.1314044161    1.4703328635    0.0658425410
 C    0.0223230584    0.0605798218    0.0454080790
 C   -1.3745517250   -0.5494218088    0.0053341484
 C   -1.3732094551   -2.0903985831    0.0001324849
 C   -2.8053393180   -2.6430837366    0.1349181353
 C   -2.8600291741   -4.1571838465    0.3066136373
 O   -4.2249589556   -4.5198331651    0.4365994189
 C   -0.7565348584   -2.5918373056   -1.2926783534
 O    0.2321309274   -3.2730447941   -1.3842979223
 H    0.7435662332    1.8688827136    0.0794337709
 H    0.6064215946   -0.2651560914   -0.8302205609
 H    0.5568577203   -0.2990592761    0.9397448924
 H   -1.9369419992   -0.1917505055    0.8745426767
 H   -1.8996773512   -0.1712473973   -0.8811104779
 H   -0.7507989584   -2.4648697616    0.8220013828
 H   -3.2930230576   -2.1759161997    0.9972714073
 H   -3.3993512746   -2.3658877484   -0.7453491588
 H   -2.3943825414   -4.6565226915   -0.5581617049
 H   -2.2794196637   -4.4491270304    1.1968771170
 H   -4.2751692030   -5.4751322920    0.5339775306
 H   -1.3158242424   -2.2661652951   -2.2043673244