16

 O   -0.2793762797    1.4179925858    0.8289810714
 C   -0.0854384372    0.2104741151    0.1097253607
 C    0.7399396751   -0.8233711558    0.8953945465
 O   -0.1956425613   -1.5569153104    1.7057522242
 C   -1.4564565830   -1.4531731621    1.1914279858
 N   -2.4788824775   -2.0550025463    1.6155281926
 C   -1.4279669929   -0.4923566689    0.0374355010
 C   -2.6344952662    0.0565139928   -0.5752795799
 O   -1.8841276572   -0.9723844932   -1.2288323537
 H    0.5791603607    1.8328094064    0.9633387220
 H    0.3237696294    0.3888606245   -0.8918394294
 H    1.2548927609   -1.5189798703    0.2218077068
 H    1.4713177160   -0.3605293648    1.5630446516
 H   -2.2457099026   -2.6756840253    2.3918816677
 H   -3.5956630253   -0.2570021482   -0.1755136361
 H   -2.5890358691    1.0396951509   -1.0389941111