21

 C    0.0175566938    1.5016263181    0.0158116215
 C   -0.0578520236    0.0126047521   -0.0281272469
 C   -0.0889190071   -0.8203527213   -1.0709803058
 C   -0.0034825894   -2.2211135552   -0.4852325001
 C    1.4688024530   -2.4274489660    0.0019492619
 C    1.5000481318   -1.4564246613    1.2148583219
 C    0.0303047087   -0.9023827780    1.2064367830
 C   -0.5096843450   -0.3909397488    2.5211642306
 O   -0.6886004018   -2.0657190665    0.7623024389
 H    0.9405805112    1.8393847516    0.5058464094
 H   -0.0043775337    1.9319987500   -0.9890791223
 H   -0.8127354731    1.9322131032    0.5888150621
 H   -0.0543738148   -0.5738322315   -2.1245291991
 H   -0.4322722955   -3.0395745741   -1.0628647292
 H    1.6206588224   -3.4628059641    0.3169223882
 H    2.2041789047   -2.1904813577   -0.7702058018
 H    1.6861741671   -1.9923164267    2.1495506929
 H    2.2465896738   -0.6633594761    1.1232114273
 H    0.0694998994    0.4695779906    2.8702680127
 H   -1.5554378844   -0.0860724224    2.4204213042
 H   -0.4520337276   -1.1729498161    3.2837880406