17

 C    0.1754597276    1.4052874544   -0.0037443423
 O    1.1331848018    0.3994241796   -0.3340637809
 C   -0.2037660305   -0.0140083759   -0.0414364574
 C   -0.3772794549   -0.8065784729    1.2043645054
 C    0.3674112440   -0.5268525197    2.5375055917
 C   -0.0101241232   -1.9634446660    2.8960221927
 C   -1.3787304676   -2.1804062569    2.2246635864
 O   -1.7721158095   -0.9482073028    1.6187725292
 C   -0.1369650932   -2.3568004827    1.4276794185
 H    0.3255905325    1.8961083683    0.9557034048
 H   -0.1227052750    2.0563928540   -0.8235749726
 H   -0.7682759563   -0.3775597750   -0.8999187714
 H    1.4416754065   -0.4191094760    2.3752441071
 H   -0.0255107482    0.2938587803    3.1463766380
 H    0.3404254153   -2.5708805573    3.7201430415
 H   -2.1412852274   -2.8691716926    2.5620251282
 H    0.2800756979   -3.1541992188    0.8292779312