19

 C    0.0200872354    1.5374031773   -0.1273187206
 C    0.0028726837    0.0191713488   -0.0116791825
 C    1.3144940404   -0.7485313750   -0.1361479389
 C    0.6209967299   -0.6872662971    1.1966825885
 C    1.2156033263    0.0688113396    2.3717621540
 C    2.1687716576   -0.8127839269    3.1558696796
 O    3.3048468580   -0.5241236823    3.4265957578
 C   -1.1740457404   -0.6005686266   -0.5651884632
 C   -2.1662134479   -1.1005733225   -1.0271290626
 H    0.9545336736    1.9598493884    0.2488729373
 H   -0.0833976710    1.8340394338   -1.1751630896
 H   -0.8092236624    1.9832466171    0.4305580501
 H    1.3105748517   -1.6822775875   -0.6853396186
 H    2.2097812286   -0.1485726937   -0.2667336797
 H    0.0931527161   -1.5923073569    1.4846744178
 H    1.7605408822    0.9641594742    2.0660591690
 H    0.4118188797    0.3757376330    3.0575833455
 H    1.7323267531   -1.7877682331    3.4771481221
 H   -3.0386625347   -1.5459035404   -1.4366356660