15

 O   -0.0305276106    0.1118102983   -0.6788814587
 C    0.0132941744    1.2177140638   -0.2206519477
 C   -1.1740621521    2.0183961954    0.3253702010
 C   -0.7349169212    3.4951410576    0.3538371956
 C    0.7023593794    3.5359803900   -0.1768570923
 O    1.2739867761    4.5014552013   -0.5963877707
 C    1.2841642127    2.1001254795   -0.1252106416
 C    1.9133456271    1.8886712575    1.1683911009
 C    2.3855524649    1.7276848218    2.2624745765
 H   -2.0472114146    1.8284604115   -0.3031525958
 H   -1.4109610385    1.6347747814    1.3230326173
 H   -1.3562676852    4.1535261978   -0.2576622769
 H   -0.7334576882    3.9098890836    1.3670539888
 H    1.9766117321    1.9098199564   -0.9489247881
 H    2.8291778036    1.5778499841    3.2159087316