14

 O   -0.0450221975    1.3250803120    0.2703502713
 C   -0.0209882385   -0.0589125919    0.1069699515
 C    1.0744335079   -0.5776757087   -0.6739631577
 C    1.9850739760   -0.9966536552   -1.3381087330
 C   -0.4971372323   -0.8962848266    1.2640846283
 N   -1.5795560007   -0.2419360192    1.9930492947
 C   -2.3716927401   -0.1276288272    0.8295397478
 O   -3.4326136070    0.3864350562    0.6327291736
 C   -1.3374305687   -0.8732769832   -0.0061197903
 H   -0.2156850217    1.7294395171   -0.5881316805
 H    2.7964370930   -1.3638867622   -1.9175907788
 H    0.0717827138   -1.7065821040    1.6992810062
 H   -1.4174284915    0.5574281436    2.5960476161
 H   -1.4858882925   -1.6221223208   -0.7703335792