19

 C   -0.0144196959    1.6108414412   -0.0301813368
 C   -0.0027937753    0.0984935232   -0.0345426432
 C    1.2856702481   -0.6640445281   -0.2389349654
 C    0.5987924363   -0.6975956538    1.1009105125
 N    1.2227518583    0.0305559684    2.1758281843
 C    0.6282000180   -0.0595172125    3.4933469045
 C    1.9455522766   -0.7245287732    3.2097970818
 C    2.0014246936   -2.1659034692    3.1702485507
 N    2.0689966550   -3.3200364379    3.1284501809
 H    0.8704038714    2.0078328010    0.4723440145
 H   -0.0326942447    1.9998595403   -1.0538112450
 H   -0.8971378500    2.0000448318    0.4894781422
 H   -0.8877911293   -0.3569711123   -0.4714480620
 H    1.2857293021   -1.5667384999   -0.8388330865
 H    2.1975957269   -0.0791554396   -0.2951647079
 H    0.0942882410   -1.6236672931    1.3798803062
 H    0.6156325183    0.8524900406    4.0832668495
 H   -0.2292362614   -0.7160885815    3.6287595165
 H    2.8648541610   -0.2589928553    3.5537502733