27

 C   -0.6453140715    1.1525811255    0.3333758122
 C   -0.2088022266   -0.2809638543    0.0241206856
 C    0.6249624253   -0.4185717875   -1.2566547810
 C    1.0315844156   -1.8768036026   -1.5039692990
 C    1.9241326051   -2.1196460076   -2.7339890981
 C    3.3381043277   -1.5477685160   -2.5561790711
 C    1.9921057906   -3.6189317180   -3.0560307628
 O   -0.1430144792    0.0346541970   -2.3768255410
 C    0.3442815097    1.1906609352   -3.0186212020
 H    0.2178046026    1.8145747278    0.4691111958
 H   -1.2571354330    1.5546381562   -0.4788875873
 H   -1.2394152784    1.1928075407    1.2515922613
 H    0.3753096998   -0.6828562382    0.8615886726
 H   -1.0943622850   -0.9210957472   -0.0761178125
 H    1.5236384484    0.2089984630   -1.1590814605
 H    1.5340384867   -2.2622052498   -0.6060600976
 H    0.1059936109   -2.4559114731   -1.6168162184
 H    1.4481109159   -1.6140982708   -3.5837311326
 H    3.8502068271   -2.0288126598   -1.7135117048
 H    3.9451385982   -1.7187098403   -3.4515492868
 H    3.3310616678   -0.4699654829   -2.3664929522
 H    0.9949823059   -4.0326550925   -3.2392993082
 H    2.6031266595   -3.8071780264   -3.9452847375
 H    2.4371146031   -4.1792254976   -2.2244813898
 H    0.3728613177    2.0622197256   -2.3482336570
 H    1.3534095837    1.0421581349   -3.4320526477
 H   -0.3384228377    1.4112198788   -3.8443493797