16

 C    0.6658807959    0.6952272533    0.9954886481
 C   -0.0241379626   -0.0001196217   -0.1557806003
 O    0.4154480686   -0.0057835073   -1.2836256256
 C   -1.3486345629   -0.6851273741    0.1325840862
 C   -2.2404235142   -0.8125789987   -1.0996223570
 C   -3.4191363205   -1.6446772288   -0.8901747733
 N   -4.3443488358   -2.3153828036   -0.7205014278
 C   -1.4350786921   -1.6412433322    1.2580737257
 O   -1.9804334187   -0.3290531296    1.3603398012
 H    1.6253245552    1.0825717063    0.6526577031
 H    0.0359699105    1.5139137243    1.3580663947
 H    0.8170707580    0.0232365135    1.8454527979
 H   -2.5598317116    0.1875874086   -1.4140162534
 H   -1.6380626283   -1.2157973814   -1.9188554809
 H   -2.1632316029   -2.4469323591    1.1972602059
 H   -0.5585200687   -1.8376703096    1.8719471956