21

 C   -0.2908937630    1.2290328681   -0.3613220063
 C    1.0963487867    1.1870035017    0.2239046586
 C    0.2696780910   -0.0789041311    0.1451362433
 C   -0.2238955384   -0.7505012466    1.3735003917
 C    0.4841337429   -1.8924924314    2.1113716127
 C   -0.8612904036   -2.1254017042    2.8473835044
 C   -1.0288627627   -0.8502960020    3.7179456423
 C   -1.1751701601   -0.0988906607    2.3959828864
 C   -1.5832428738   -1.3585659855    1.6642754769
 H   -1.0700743287    1.7195225816    0.2107124630
 H   -0.3939472018    1.3480353183   -1.4343397785
 H    1.9451991701    1.2943044206   -0.4423163573
 H    1.2380256485    1.6244781952    1.2062320965
 H    0.5718168365   -0.7759354914   -0.6339219074
 H    0.7191857094   -2.7095837845    1.4220042648
 H    1.3654943960   -1.6654953025    2.7245450378
 H   -1.1237089107   -3.1074866976    3.2353114849
 H   -1.9725219331   -0.8559031928    4.2711303998
 H   -0.2064395321   -0.5892280490    4.3951295883
 H   -1.5599903757    0.9014947597    2.2458861302
 H   -2.4267125773   -1.5797152057    1.0261911678