18

 O    0.1056086042    0.1687765005    0.8405863746
 C    0.0897461827    1.2796238948    0.3489718177
 N    1.1952304390    1.9744017124   -0.0131451213
 C    2.5443850529    1.4182576858    0.1558529023
 C    3.4246851563    2.3454712242   -0.6932319974
 C    2.6730553004    3.6670728912   -0.6454591770
 C    3.2156162245    4.8979043717   -0.0584611650
 O    3.0748123944    4.7390662120   -1.4787323170
 C    1.1888618341    3.3114811699   -0.6014350116
 H   -0.8452134625    1.8397501399    0.1446256510
 H    2.8345813075    1.4386375022    1.2138849529
 H    2.5605672866    0.3748926782   -0.1657613960
 H    4.4492889410    2.4208115371   -0.3251189296
 H    3.4613918144    1.9975343940   -1.7316177150
 H    2.5452468371    5.6258912590    0.3962801816
 H    4.2413206892    4.9160631386    0.3075063101
 H    0.7833181351    3.3098897962   -1.6223595732
 H    0.6056512832    4.0207888721   -0.0056745473