22

 C    0.1243944416    1.5205420800   -0.0293367140
 C   -0.0384878948    0.0158333637    0.0243667243
 C   -0.9690939452   -0.5732939504    1.0645685181
 C    0.5362339760   -0.7352533544    1.2028180476
 N    1.2801765344   -1.9558284134    0.9980109197
 C    0.6509078287   -3.2669221788    1.0973945075
 C    1.0548422073   -2.7205484560   -0.2311384369
 C    0.0234959094   -2.2139681035   -1.2305987725
 C    0.0607556669   -0.6783525362   -1.3282811531
 H    1.0857261364    1.7984951907   -0.4776675057
 H   -0.6684860866    1.9836624977   -0.6293129106
 H    0.0835791543    1.9617839247    0.9715875189
 H   -1.4544985093    0.1066118981    1.7574389121
 H   -1.5773929196   -1.4314350618    0.8039974163
 H    0.9916530350   -0.1300835812    1.9825402230
 H    1.2436389191   -4.0332984951    1.5911018297
 H   -0.4156201722   -3.3157240858    1.3100616501
 H    1.9787710498   -3.0871820418   -0.6762321432
 H    0.2262035799   -2.6485755024   -2.2141104099
 H   -0.9837914418   -2.5441174797   -0.9561866270
 H   -0.7464807447   -0.3296462741   -1.9846015698
 H    1.0024479556   -0.3706151703   -1.8042589746