13

 N   -0.1241799011    1.3055696192    0.0054189390
 C   -0.0180228881    0.0473132343   -0.0123095317
 N    1.1228180840   -0.7650791217    0.0258596969
 C    0.8470299628   -2.1270197121   -0.0186665404
 O    1.6520913944   -3.0206859512   -0.0743233465
 C   -0.6563880458   -2.1941344050   -0.0256894453
 C   -1.3555214905   -1.5943915217    1.1452606576
 N   -1.1667146772   -0.8098413283   -0.0889145452
 H    0.7855674252    1.7608518498    0.0714769477
 H    2.0659540869   -0.4114294045    0.0768275644
 H   -1.1331145470   -2.9479093088   -0.6411161945
 H   -2.3833732094   -1.8784667634    1.3436682706
 H   -0.7677147743   -1.3239270567    2.0179670973