21

 O   -0.0527408165    1.3889515443   -0.0288345262
 C    0.0231974366   -0.0291107143   -0.1319114757
 C   -1.3823328479   -0.5777037375    0.0541324477
 C   -2.3957351188   -0.1277280065   -1.0399221394
 C   -3.1523988054   -1.3976308381   -1.4772136317
 O   -2.5245428284   -1.8643935534   -2.6898620715
 C   -2.9179381085   -2.3922585083   -0.3282414773
 C   -1.4526083265   -2.1275303882    0.0603657748
 O   -0.5477543240   -2.7331124208   -0.8536801821
 H    0.8156287153    1.7485872155   -0.2311921472
 H    0.4152017590   -0.3401972751   -1.1098790146
 H    0.6922104906   -0.4495094677    0.6354719153
 H   -1.7404926399   -0.2259350695    1.0293717225
 H   -3.0895587453    0.6204107327   -0.6504578143
 H   -1.9006652973    0.3181831967   -1.9062251543
 H   -4.2145587198   -1.2075047239   -1.6734670341
 H   -2.9691654757   -2.6765932161   -2.9568261829
 H   -3.5823881202   -2.1496703759    0.5099370889
 H   -3.0958593032   -3.4348030390   -0.6116301759
 H   -1.1969210941   -2.5364182588    1.0424258117
 H   -0.8808514999   -2.5269277361   -1.7398375937