17

 N    0.0932463003   -1.1566554408    0.0090592805
 C    0.0670225366    0.0006132491    0.0281588657
 C    0.0257505870    1.4308064366    0.0648078282
 C    0.3053334990    2.2388352810   -1.1962100255
 C    1.2952882376    2.2875305244   -0.0726199936
 C    1.2347343066    3.4057595209    0.9731192893
 C   -0.1163730693    3.2760390387    1.6695513583
 N   -1.2811946171    3.4553332693    0.7788127174
 C   -0.8383335142    2.0946172831    1.1297926390
 H    0.5874111713    1.6750745841   -2.0778806772
 H   -0.3494763181    3.0852751283   -1.3595479556
 H    2.2467525794    1.7921439005   -0.2282292876
 H    2.0329269458    3.2585486559    1.7080145663
 H    1.3721619704    4.3971950128    0.5295629307
 H   -0.2062774894    3.5784846819    2.7080625975
 H   -2.1031868844    3.7005109227    1.3245535921
 H   -1.4739576216    1.4607655814    1.7365294744