16

 N    0.1030596069    1.2018968224    0.6264795371
 C   -0.0287941905    0.0362928943    0.1622284129
 C   -1.3519335210   -0.6454281884    0.0108834992
 C   -1.5465202087   -1.9382640561    0.8144261434
 O   -2.6742598251   -2.3662056577    0.9536650562
 C   -0.4242449435   -2.6767878311    1.4471668071
 C    0.9008467484   -2.4935940010    1.3909666386
 C    1.7158723044   -1.4910866712    0.6354267883
 O    1.0171930448   -0.7288827104   -0.3315124236
 H    1.0865475088    1.4830925096    0.6095369208
 H   -2.1635165503    0.0323769046    0.2776998855
 H   -1.4779434328   -0.9208148290   -1.0442096079
 H   -0.8009019920   -3.4959994227    2.0537785726
 H    1.5196991423   -3.1651745142    1.9858433491
 H    2.2207928051   -0.8298491456    1.3609305853
 H    2.5089306233   -2.0117859634    0.0865578354