15

 O   -0.0197608084   -0.0858043754   -0.0191094835
 C   -0.0156171168    1.1271264377   -0.0062880203
 C    1.2119026436    1.9193417673    0.0280446240
 C    1.3073569320    3.2651856167    0.0434170085
 C    2.7713901684    3.6485911010    0.0788137103
 O    3.4857347720    2.4254890538    0.0823002542
 C    2.5887758039    1.3159153998    0.0518247016
 C    0.2739836341    4.2221615828    0.0305374044
 C   -0.5657272410    5.0868772814    0.0208299817
 H   -0.9567205392    1.7136527582   -0.0214988607
 H    3.0454533395    4.2575944033   -0.7962438610
 H    3.0071784760    4.2402417990    0.9766203733
 H    2.7417704868    0.6777658071    0.9336442810
 H    2.7800154404    0.6953990432   -0.8351042633
 H   -1.3187496712    5.8359677341    0.0114280298