18

 C    0.4479780702    0.5351467424    0.6610407317
 N   -0.3293370839    0.3178491639   -0.5651489149
 C   -1.4864464174   -0.4604724255   -0.4382852088
 C   -2.8306741639   -0.1842635813   -0.5134542500
 N   -3.5728253950   -1.3372452625   -0.3655632312
 C   -2.6991407804   -2.3025647731   -0.1978446692
 C   -2.9893847439   -3.7558521820    0.0028123694
 O   -2.1440539636   -4.3442766275    0.9888534454
 N   -1.4156973299   -1.8240793072   -0.2398324780
 H    1.3161675775    1.1561780961    0.4252502009
 H   -0.1268018352    1.0155436566    1.4673897287
 H    0.8198830957   -0.4225814634    1.0368405949
 H   -0.5623790216    1.2019355411   -0.9988933136
 H   -3.2990440920    0.7769716326   -0.6641657732
 H   -4.0566308903   -3.8619584087    0.2339726377
 H   -2.7921109770   -4.3283481523   -0.9116370639
 H   -2.3348313765   -3.9080773004    1.8263853692
 H   -0.5791954128   -2.3762791287   -0.1471397752