14

 N    0.0019837863    1.4234334438    0.1662300598
 C   -0.0273369920    0.0361494496    0.0645596372
 C   -1.1673711022   -0.6955889000    0.0364528858
 O   -2.3949174140   -0.1398219876    0.0338787721
 O   -1.2008510896   -2.0482877196   -0.0041326659
 C   -0.0268274190   -2.7267770509   -0.0153360089
 C    1.1648339635   -2.1108734961   -0.0023757596
 C    1.2621958750   -0.6542129519    0.0218795387
 O    2.3193865923   -0.0264086329   -0.0005029609
 H    0.9261894326    1.7593109512   -0.0827296301
 H   -0.7416483639    1.9069463367   -0.3165543610
 H   -3.0527465555   -0.8452187574    0.0130367436
 H   -0.1954239477   -3.7947784594   -0.0385553390
 H    2.0780687842   -2.6917434956   -0.0229223717