19

 O    0.1855401737    1.0739779951   -0.7774488584
 C   -0.0053554887   -0.1257078665   -0.0884969288
 C    0.0031826467   -0.0952733979    1.4585232516
 O   -1.3695611090   -0.5552448775    1.5225270589
 C   -1.4673681598   -0.6526821052    0.0750040403
 C   -2.5640279392    0.2372337437   -0.4373074632
 O   -2.4690094577    1.5478160506    0.0811853886
 C   -3.0394306809    0.1392667955   -1.8503453062
 C   -3.9432861166   -0.3044772817   -0.7178002701
 H   -0.5447384574    1.6620219789   -0.5313026522
 H    0.6832066932   -0.8531824272   -0.5240386393
 H    0.6876460853   -0.7931980328    1.9547478290
 H    0.1275418611    0.9055215771    1.8896559882
 H   -1.6240931619   -1.6893619450   -0.2482879641
 H   -2.4800914103    1.4384927130    1.0424221148
 H   -3.2752623450    1.0759573784   -2.3416013469
 H   -2.5953516319   -0.6123652147   -2.4936293131
 H   -4.1253137979   -1.3644082305   -0.5776896321
 H   -4.7747291437    0.3434286368   -0.4659374870