16

 C    0.1709574116    1.5195018036    0.0143289362
 O    1.1838000643    0.5355783009   -0.1780634064
 C   -0.1564295110    0.0798940051    0.0150185068
 C   -0.4534651832   -0.6669073156    1.2670286639
 C    0.4258942517   -0.6492476525    2.3548458367
 N    0.1997001024   -1.2810195085    3.5076206480
 C   -0.9372761765   -1.9743372559    3.6161723053
 C   -1.8759352624   -2.0737215530    2.5928378814
 C   -1.6254042201   -1.4109845233    1.3976319597
 H    0.2077327529    2.0503223715    0.9642958686
 H   -0.0656957630    2.1266061475   -0.8584937159
 H   -0.6253792198   -0.3226926637   -0.8840656389
 H    1.3641508823   -0.1082682846    2.2698273285
 H   -1.1021834878   -2.4794063153    4.5649411693
 H   -2.7773901113   -2.6605400154    2.7299103311
 H   -2.3309398501   -1.4692846306    0.5734667857