16

 N   -0.0021133173    1.1708100014   -0.5996287466
 C   -0.0435061977    0.0503842983    0.2072188748
 O    0.8780712662   -0.2703892567    0.9316409766
 C   -1.2848818295   -0.7639652241    0.1045449629
 C   -1.9060391159   -1.3100319735    1.3719652155
 C   -1.3363478843   -2.2930495545    0.3954284048
 N   -2.2317641393   -2.8519629562   -0.5756572875
 C   -2.6578883665   -1.8914507098   -1.3065912813
 N   -2.2113951877   -0.6004309349   -1.0005765925
 H    0.7859362560    1.7777544196   -0.4223458188
 H   -0.8668074512    1.6450985833   -0.8127918823
 H   -1.3255651044   -1.1359541668    2.2702923491
 H   -2.9845774879   -1.2433985058    1.4703750040
 H   -0.4604688167   -2.8705687127    0.6655317061
 H   -3.3610782165   -2.0225429648   -2.1227243857
 H   -1.8781559874   -0.0598450430   -1.7900877990