21

 O    0.1360466243    1.1975112001    0.1403519680
 C   -0.0839955685   -0.1840389707    0.1539898237
 C   -0.5703877558   -0.8215966702    1.4142526903
 C   -1.5411302305    0.1112171659    2.1648234655
 C   -2.4558298279    0.1599899771    0.8974396562
 C   -1.4719442014   -0.7715806184    0.1604653013
 C   -1.6760705853   -2.1874343771   -0.3405431834
 C   -0.5475193190   -3.0091638741    0.3616852421
 C   -0.2141619392   -2.2670074176    1.6952814440
 H   -0.1181142520    1.5269874798   -0.7281655449
 H    0.6606598046   -0.7554851864   -0.4006983128
 H   -2.0215147373   -0.3875485063    3.0099322658
 H   -1.1229258970    1.0616531869    2.5032197927
 H   -3.4276607973   -0.3123714215    1.0595455306
 H   -2.6177525019    1.1445910067    0.4494172042
 H   -2.6617690344   -2.5422251228   -0.0156520421
 H   -1.6382839276   -2.3071574897   -1.4296656685
 H   -0.8381712243   -4.0504298747    0.5294682196
 H    0.3411266715   -3.0381456848   -0.2775433590
 H    0.8244903871   -2.4376883469    2.0001032956
 H   -0.8513091982   -2.6398018354    2.5062146311