21

 C   -0.3495829054    1.4288129148    0.1065807853
 C    0.2714740722    0.0424790359   -0.0988044872
 C    0.9176574404   -0.5070942936    1.1553711283
 C    0.0742092993   -1.1657784154    2.2326498514
 C    0.9987967169   -2.0028818979    1.4013528372
 O    0.3820630043   -2.8704304505    0.4928911753
 C    2.2456671638   -2.5746420551    2.0016476533
 C    2.4177468465   -4.0190383626    2.1898417663
 O    3.0420162107   -3.3426402173    1.0855734525
 H    0.4037485789    2.1601425624    0.4199565336
 H   -0.8071867363    1.7974620088   -0.8169104133
 H   -1.1247116976    1.4019242006    0.8796493347
 H   -0.4895096837   -0.6650502819   -0.4430681903
 H    1.0236771457    0.0939787934   -0.8970976635
 H    1.7676235622    0.0692459436    1.5173579991
 H    0.3120193421   -0.9962255675    3.2776381328
 H   -0.9831392288   -1.2935070391    2.0243450347
 H    1.0853520813   -3.1696378174   -0.0998045111
 H    2.8163730926   -1.8947587196    2.6348324751
 H    3.1033745527   -4.3860960299    2.9513716319
 H    1.6033019623   -4.6858512216    1.9187339240