16

 C    0.0235763563    1.5016597618    0.0819090305
 C    1.3231637352    0.7319175436   -0.0010200054
 N    2.0481379020    0.3448770903    1.2165780476
 C    1.1308452170   -0.4312685111    1.9314107062
 C   -0.0250296544   -0.7469325853    1.2557484576
 C   -0.7122213807   -1.6111844222    2.1292889353
 N   -0.0353589064   -1.8042961679    3.2637739618
 N    1.1076834631   -1.0605278860    3.1205426967
 C   -0.0148597869   -0.0129821854   -0.0380587717
 H   -0.2736363363    1.9398920078    1.0288143879
 H   -0.2397957683    2.0833369736   -0.7953361467
 H    1.9469838238    0.8436300187   -0.8802373317
 H    2.4700650598    1.1197703844    1.7150646702
 H   -1.6647251719   -2.1046395657    2.0010240392
 H    1.7863849263   -1.0668461736    3.8612777103
 H   -0.3781701987   -0.4645560128   -0.9536577976