16

 C   -0.0156249493    1.5044831995   -0.0307533836
 C    1.4034788772    2.1042411436    0.0551298244
 C    2.1924541262    1.5518719494    1.2224748180
 O    1.4535096285    1.2706600568    2.4127729221
 C    1.9624695838    0.1640210466    1.6684851663
 C    0.9661428543   -0.6832242987    0.9203918894
 O   -0.4034733125   -0.6017513635    1.3007330004
 C   -0.0167387181   -0.0158259779    0.0505800753
 H   -0.6190314934    1.8855542670    0.7971082332
 H   -0.4897233840    1.8294611377   -0.9613820489
 H    1.9682126914    1.8977867364   -0.8641946190
 H    1.3353776000    3.1947850203    0.1394524422
 H    3.1745584157    1.9939443152    1.3933233139
 H    2.7688300754   -0.3770289834    2.1624307715
 H    1.3156948482   -1.6862514283    0.6741070593
 H   -0.3897954534   -0.5576515908   -0.8177662344