17

 O   -0.2426570638    1.4488175524    0.0127874841
 C   -0.0413919393    0.0462611198    0.0030438708
 C   -1.4180050083   -0.6092597811    0.0121110304
 C   -1.3266396519   -2.1245816271    0.0024564685
 O   -2.6731528833   -2.6459680179    0.0120305930
 C   -2.7829811603   -3.9830477589    0.0060602057
 O   -1.8739827911   -4.7665700968   -0.0064202065
 C   -4.2727991373   -4.3602684343    0.0176583955
 O   -4.6377025756   -5.5008602621    0.0149070507
 H    0.6178944564    1.8778955561    0.0078972476
 H    0.5194046581   -0.2728584442   -0.8908725614
 H    0.5358410545   -0.2828359631    0.8827595365
 H   -1.9651003426   -0.2765014989    0.9003608684
 H   -1.9815494303   -0.2662557579   -0.8618438802
 H   -0.8131558280   -2.5048797591   -0.8871101283
 H   -0.7966111712   -2.5151607579    0.8777440865
 H   -4.9655958263   -3.4949638490    0.0286295387