17

 O    0.0875688018   -0.1524252043    0.1287910619
 C    0.0271158347    1.0323560891   -0.0859954870
 C    1.2188930739    1.9555057474   -0.0286632176
 C    1.4536736865    2.9010971861   -1.2193102654
 C    0.3714306499    3.9438937304   -1.3350937975
 C    1.4450784380    4.1259333025   -0.3082620201
 C    1.1662682532    3.2344744896    0.9212623036
 C   -0.0380078275    3.4920955449    1.6905772391
 C   -1.0454213870    3.6990072848    2.3142303026
 H   -0.9361363974    1.5133215321   -0.3595304918
 H    2.0974305270    1.3526452962    0.2065155261
 H    2.1138150984    2.6719578547   -2.0461956519
 H    0.4577314409    4.5827284127   -2.2077880954
 H   -0.6519354826    3.7488674410   -1.0301627154
 H    2.1065898838    4.9824249588   -0.2965770791
 H    2.0299186633    3.1981335407    1.5899669639
 H   -1.9287229069    3.8840660334    2.8741171039