18

 C    0.0203452190    1.5538353014   -0.0430654559
 C   -0.0093862189    0.0524751409    0.0282829731
 N    0.3399467794   -0.7688509884   -1.2013349000
 C   -0.3203103802   -1.9337680546   -0.4832901805
 C   -0.7175556737   -3.1599118225   -1.2571271814
 C    0.5643452649   -2.0059891110    0.7450560390
 C    0.7654105362   -0.7212846205    1.0759725966
 C   -1.3377117687   -0.8207844235    0.0199710293
 O   -2.5125946037   -0.6440564479    0.0478746846
 H    1.0180607711    1.9107122089   -0.3164922694
 H   -0.6963340391    1.9289529876   -0.7801335854
 H   -0.2444758480    1.9857801323    0.9266847419
 H   -0.2689690184   -0.4747448608   -1.9731684333
 H    0.1531130780   -3.6145955912   -1.7395770709
 H   -1.1661418831   -3.9018384443   -0.5897162749
 H   -1.4552123814   -2.9187955665   -2.0287082323
 H    0.8576356802   -2.9113564241    1.2568644594
 H    1.2674993465   -0.2925747858    1.9314096500