20

 C   -0.2909634409    1.4837494406   -0.0844232392
 C    0.0122595614    0.0061398151    0.0705198897
 O    0.7340803926   -0.4431453572   -1.1100987372
 C    1.5718144305   -1.4593807877   -0.7879090653
 O    2.2958754149   -1.9904441918   -1.5817644675
 C    1.4368180654   -1.7672809221    0.7121980763
 N    2.6216206217   -2.3006622522    1.3606024571
 C    0.8904764759   -0.4346985325    1.2653009753
 C    2.0032867054    0.5519540114    1.6329446906
 H    0.6262568417    2.0694460350   -0.1788558276
 H   -0.8988385026    1.6519041854   -0.9772002307
 H   -0.8497501543    1.8457123362    0.7844777084
 H   -0.9315235529   -0.5560289279    0.1000785518
 H    0.6428548987   -2.5227361303    0.7967415292
 H    2.8314281170   -3.2078254268    0.9531673163
 H    3.4243701031   -1.7203308818    1.1323895998
 H    0.2612294925   -0.6057278580    2.1433980761
 H    2.6383205080    0.7944037467    0.7730334038
 H    1.5901949474    1.4890625700    2.0148516359
 H    2.6365538744    0.1234701879    2.4140827972