19

 C   -0.4953532724    1.3737483638    0.1327151097
 C   -0.0486652854   -0.0692881846    0.0704163632
 C    1.3648007424   -0.4119676611   -0.3317705603
 C    0.9129800285   -0.6521753100    1.0856782780
 N    1.4429452175    0.1597690856    2.1416467281
 C    0.7568189181    0.5932191682    3.2599024016
 C    1.6789412945    1.2482859582    4.0307523600
 N    2.9157764790    1.2290689801    3.4273572674
 C    2.7387062589    0.5664184692    2.3080420141
 H    0.2990921124    2.0213975437    0.5124433974
 H   -0.7750264513    1.7316949624   -0.8635501173
 H   -1.3646752811    1.4946953732    0.7876690749
 H   -0.8143429834   -0.7661602512   -0.2595869864
 H    1.5531140928   -1.2769787035   -0.9569946752
 H    2.0378510134    0.4210340727   -0.5028887347
 H    0.7452285153   -1.6845181257    1.3798830524
 H   -0.2949565126    0.3953693957    3.3839065906
 H    1.5235110880    1.7369143508    4.9808233570
 H    3.4988843353    0.3412797827    1.5755300095