18

 C   -0.2140948789    1.4164063558    0.0165139056
 N    0.0035496997   -0.0207901428    0.0989630636
 C    1.3706656055   -0.5111386362   -0.1459078055
 C    0.7683688917   -0.5253910413    1.2052893782
 C    1.3206836841    0.1302346718    2.4572995411
 C    0.3924536492   -0.3947985514    3.5714280418
 O   -0.6459488368   -1.1613156624    2.9631276974
 C    0.3884032281   -1.7140892037    2.0937238756
 C    1.5107468409   -1.2511307719    3.1001927334
 H    0.6416403239    2.0148688971    0.3706473848
 H   -0.4159980373    1.6929570181   -1.0229468441
 H   -1.0890969256    1.6793763734    0.6185256322
 H    1.4490376191   -1.4155438148   -0.7449414929
 H    2.1521093401    0.2257694261   -0.3322894272
 H    1.9465769124    1.0053073842    2.5687626522
 H    0.1972130208    0.1159624086    4.5049875782
 H    0.1616092387   -2.7067201611    1.7127358632
 H    2.3635334744   -1.7252459395    3.5634345124