19

 C    0.2752088203    1.0023897881   -0.5338736877
 N    0.0415708651   -0.1572942884    0.3271592605
 C    0.5053365961    0.0809932572    1.6947812685
 C   -1.2877475262   -0.6346400246    0.2667918442
 C   -1.6577064311   -1.8677481610   -0.2114780055
 N   -0.9013141597   -2.9550150556   -0.6672583861
 N   -3.0263082420   -1.9173063333   -0.0716885616
 C   -3.4194868339   -0.7224460532    0.4788410906
 N   -2.4006138599    0.0671409126    0.6982006735
 H    1.3454926400    1.2364778937   -0.5464658565
 H   -0.0390489380    0.7681962837   -1.5545905010
 H   -0.2727302030    1.8990596894   -0.2020088066
 H   -0.0241519445    0.9124204445    2.1871216661
 H    0.3555520092   -0.8218805180    2.2927039713
 H    1.5760052184    0.3130968933    1.6801593681
 H    0.0791880754   -2.7027881982   -0.5832793005
 H   -1.0821919733   -3.1747160670   -1.6430651480
 H   -3.6064437699   -2.7158667399   -0.2664176044
 H   -4.4575374929   -0.4994117235    0.6753959650