19

 O   -0.1999735626   -0.0733674899   -0.4489777389
 C   -0.1091305970    1.0828353812   -0.1887350714
 C   -1.1738379965    2.2222586264    0.1822048080
 C   -0.0044863219    2.8127147112    1.0043324900
 C    1.0376900968    3.9797405332    1.1242077923
 C    2.0695287194    2.7654608061    1.0741232637
 C    1.7875381103    2.0608588684    2.4048019747
 C    0.2303718939    2.0678925944    2.3484093664
 C    1.0080239617    2.1471778473    0.0806564930
 H   -1.4377067983    2.7942073881   -0.7115974412
 H   -2.0825548409    1.8969479916    0.6935598554
 H    1.0902190316    4.6156048981    0.2387167245
 H    1.0326962459    4.5857407592    2.0356942196
 H    3.1075258757    2.9205427644    0.7794986249
 H    2.2035566431    1.0511317930    2.4416580845
 H    2.1871773590    2.6223707961    3.2541252127
 H   -0.2329494389    2.6017818690    3.1832520666
 H   -0.1848500525    1.0551495514    2.3372314754
 H    1.0486168212    2.7139059907   -0.8595913801