22

 C   -0.0054687105    1.5692661923   -0.1306289424
 C    0.0857041194    0.0419444994   -0.0755031488
 C    0.7091026325   -0.5038227752    1.2239237036
 C   -0.0831816770   -0.2197751276    2.4901677496
 C   -0.3636616597   -1.3168174878    3.2024174253
 C   -1.1258569277   -1.4127627674    4.4852973791
 C    0.1705716827   -2.5236829579    2.4921604771
 N   -0.4868520340   -2.7309158471    1.1668539193
 C    0.8161973575   -2.0308192601    1.2508249866
 H    0.9791372222    2.0337059248   -0.0014994606
 H   -0.4044986382    1.9027030207   -1.0938472548
 H   -0.6629145961    1.9645527529    0.6504012958
 H   -0.9065513951   -0.4049482435   -0.1930918818
 H    0.6895681042   -0.3122290158   -0.9213990951
 H    1.7202386139   -0.0765593769    1.3174760787
 H   -0.4086407364    0.7800122484    2.7577642364
 H   -1.4208936312   -0.4260844941    4.8526362636
 H   -2.0336163849   -2.0164807086    4.3595169553
 H   -0.5311910114   -1.9011687794    5.2680763813
 H    0.5191250126   -3.3931465123    3.0412174253
 H   -0.3075312802   -3.6874087077    0.8638174783
 H    1.6882501172   -2.5145862071    0.8231095884