15

 C    0.0461626659    1.4994503006   -0.2480218002
 C   -0.0184285952    0.0097659896   -0.0778535480
 C   -1.1453830241   -0.7136555939   -0.1048669840
 C   -1.2089445426   -2.1881873668    0.0636399560
 O    0.0252736774   -2.8657537144    0.2673097345
 C    1.2256558653   -2.2354298996    0.3128411762
 O    2.2229377337   -2.8694000231    0.4877790524
 C    1.2561130445   -0.6989605915    0.1338856276
 O    2.3249133058   -0.1345162970    0.1741587021
 H    0.6796581393    1.7606120973   -1.1015470062
 H   -0.9478870773    1.9265767625   -0.3981260366
 H    0.5065430965    1.9658233936    0.6286651534
 H   -2.1095077994   -0.2326066386   -0.2584021869
 H   -1.8562798652   -2.4366241377    0.9169521574
 H   -1.6826848943   -2.6422771910   -0.8185518378