24

 C    1.5459666794   -0.8297080144    1.1088189342
 C    0.4971131245   -0.0430145515    0.3098795082
 C    0.6924009568   -0.1249215897   -1.1972331883
 C    1.8437937187    0.7261350485   -1.7216809136
 O    1.4944727031    2.1000320303   -1.7088044832
 C    0.2712023688   -1.3178465313   -2.0012844176
 C   -0.3589770288   -2.5578353237   -1.4015251173
 N   -0.4442051052   -0.0400160406   -2.1359340293
 C   -1.8174885078    0.0870873484   -1.6681415161
 H    1.5007902817   -1.8993904290    0.8809482229
 H    2.5626502795   -0.4879133410    0.8920796355
 H    1.3829606573   -0.7085603711    2.1842334926
 H   -0.4994415865   -0.3894332906    0.5957827053
 H    0.5433269270    1.0175798410    0.5853633149
 H    2.7342166560    0.6281292489   -1.0923065822
 H    2.1099647328    0.3948914026   -2.7362298391
 H    0.6873706040    2.1540301858   -2.2363075181
 H    0.8715612137   -1.5468743502   -2.8831623990
 H   -0.8382926123   -2.3831072779   -0.4368543775
 H   -1.1106755514   -2.9768938448   -2.0801343420
 H    0.4095234218   -3.3235631054   -1.2536589554
 H   -2.1050876758   -0.5665985378   -0.8339864617
 H   -1.9944721615    1.1221239093   -1.3584074674
 H   -2.4898664657   -0.1297723258   -2.5050100457