14

 O   -0.0114836479   -0.0637457994   -0.0899896129
 C   -0.0512637667    1.1502217664   -0.0474058833
 C    1.1869663090    1.9224649678   -0.0184373635
 C    2.2237354247    2.5460548954    0.0050145365
 C    3.3903614129    3.2535481756    0.0316174173
 N    4.3804021433    3.8606578338    0.0544445332
 C   -1.3039679784    1.9402045698   -0.0214275060
 C   -2.4958120970    1.3693500732   -0.7864882547
 C   -2.4980112561    1.3170781304    0.6979709392
 H   -1.1917249929    3.0167422808    0.0166375433
 H   -3.1322848487    2.0854727604   -1.2924558485
 H   -2.3057294540    0.4459147500   -1.3210801359
 H   -2.3094281835    0.3583149830    1.1668747833
 H   -3.1361060849    1.9958155528    1.2512255719