20

 C   -0.1510248066    1.6304968221    0.2053687492
 C   -0.0980867467    0.1231282275    0.1095804695
 C    1.1052488282   -0.5954494343   -0.3948043571
 C    0.7426247616   -0.7377123233    1.0744530552
 C    1.6114331777   -0.0957819404    2.0904990288
 O    2.3751121146    0.8231443367    1.8364277915
 C    1.5206967131   -0.6271346517    3.4893132284
 C    2.8232883949   -0.9638296484    4.1532525340
 N    2.0694862670    0.2116538526    4.5628748244
 H    0.8183302842    2.0448097524    0.4874271149
 H   -0.4391912279    2.0553679389   -0.7624268403
 H   -0.8912862145    1.9543907241    0.9447330266
 H   -1.0518571627   -0.3431159253   -0.1244909414
 H    0.9832521839   -1.4697836639   -1.0241712815
 H    1.9929321482   -0.0015574567   -0.5853391532
 H    0.2782931799   -1.6658245694    1.3904249290
 H    0.6347188577   -1.2004672764    3.7452170487
 H    2.8490745816   -1.7800198069    4.8695760495
 H    3.7230254976   -0.8258770401    3.5600399436
 H    2.4766143583    1.0288544926    4.1046501400