20

 C   -0.0029553337    1.5390339254   -0.0375514861
 N   -0.0339211861    0.0784002494    0.0403965968
 C   -1.1940358478   -0.7020883498    0.5216816501
 C   -0.1951236795   -1.9043781875    0.5838829585
 C    0.7381969572   -0.7239857699    1.0128513292
 C    0.1193720066   -0.4191479705    2.4219370888
 C    0.7426710163   -0.8994703446    3.6973021062
 O   -0.6258674497    0.8112814246    2.4572755706
 C   -1.2973210631   -0.3917107756    2.0498296139
 H    0.7847026924    1.9555476757    0.5965533699
 H    0.1919188008    1.8430808518   -1.0743702246
 H   -0.9436362143    1.9912018227    0.2873330757
 H   -2.1039893933   -0.7065016250   -0.0794957996
 H   -0.3921654291   -2.6892599749    1.3184433512
 H    0.0488231678   -2.3122282484   -0.3966478184
 H    1.8249101440   -0.7532429114    0.9159608363
 H    1.6684354569   -0.3523187708    3.9088640778
 H    0.0633478625   -0.7552467450    4.5414327131
 H    0.9948265202   -1.9632882460    3.6289465233
 H   -2.1201185780   -0.7275956001    2.6735062672