21

 C   -0.0977637822    1.5030377587    0.0643330490
 C    0.0070642198    0.0060534974    0.0035424118
 C    0.0851760620   -0.6721981337   -1.1615414304
 C    0.0367441908   -2.1067307223   -1.3071242412
 C   -0.6377147165   -2.9719402300   -0.5013814852
 C   -1.4313329951   -2.6176073139    0.6501572808
 C   -1.2148554613   -1.5614502136    1.4633098314
 C   -2.1755582128   -1.1623999575    2.5465712394
 C    0.0575229321   -0.7560396900    1.3103334130
 H    0.7353946059    1.9381505749    0.6323802609
 H   -0.1081185103    1.9514450565   -0.9326165232
 H   -1.0160087281    1.8131143422    0.5808984305
 H    0.1686254946   -0.1007312771   -2.0846217494
 H    0.4785507744   -2.5134098903   -2.2144010310
 H   -0.6889274427   -4.0110746620   -0.8196724446
 H   -2.2903742739   -3.2551874061    0.8530244719
 H   -3.0481540481   -1.8200957377    2.5796998362
 H   -1.6923846201   -1.1762535370    3.5327279584
 H   -2.5351804138   -0.1357093496    2.3957754903
 H    0.9184470337   -1.4381068132    1.2985765557
 H    0.1855093716   -0.0705499556    2.1535476056