16

 C    0.0568119706    1.4812086584    0.1104036860
 C   -0.0824035524   -0.0096363692   -0.0554862300
 C   -1.2858718272   -0.6209758028    0.0210481084
 C   -1.5296867723   -2.0590784232   -0.1578919817
 N   -2.5424048366   -2.4700291284   -0.8130014849
 N   -0.6859006574   -2.9445638783    0.5500326889
 C    0.5884836243   -2.8648495779    0.4942991131
 C    1.4047719414   -1.8558170272   -0.1894881413
 N    1.1212065317   -0.6219038885   -0.3968516433
 H    0.4622478113    1.9258718844   -0.8039843505
 H   -0.8992893778    1.9520046098    0.3460557273
 H    0.7664623140    1.7080000532    0.9138433167
 H   -2.1761936860   -0.0143629438    0.1554901164
 H   -2.5911916132   -3.4912372038   -0.7625128259
 H    1.1547005951   -3.6349949400    1.0270203284
 H    2.4059568345   -2.1810566228   -0.4836719775