18

 C   -0.0320163866    1.5564918656   -0.0425669971
 C    0.0155096986    0.0307642626    0.0097968127
 O   -1.3073409606   -0.5163777175    0.0784303777
 C    0.6421674965   -0.5346391761   -1.2659188129
 N    0.9386892046   -1.9516271270   -1.1425243421
 C    1.4508232740   -2.4231841969    0.0155590981
 C    1.4443553840   -1.7250241596    1.1838566837
 C    0.7528876969   -0.4616545396    1.2902647095
 O    0.6121047099    0.1661489528    2.3313872221
 H    0.9655296997    1.9847328937   -0.1836477665
 H   -0.6804687619    1.8841454062   -0.8603576280
 H   -0.4208868980    1.9356341880    0.9047245471
 H   -1.6645926161   -0.2689683026    0.9396896939
 H   -0.0505835087   -0.3842416409   -2.0985818210
 H    1.5662461993    0.0257234944   -1.4752045655
 H    1.0944626305   -2.4757142636   -1.9862678164
 H    1.8628977060   -3.4270870050   -0.0356577801
 H    1.8611636020   -2.1593418045    2.0831681248