20

 C   -0.0072178482    1.5936853526   -0.0663328299
 C   -0.0654671100    0.0814825839    0.0506275613
 C   -1.3201094776   -0.5248895837   -0.5426021816
 O   -1.3431048840   -0.2334206602   -1.9332987435
 C    1.2080519378   -0.7228972577   -0.0747341123
 C    0.5017014920   -0.6400969152    1.2560764883
 C    1.1164243364    0.1088389726    2.4300507396
 C    2.0448316374   -0.7299132137    3.1914303385
 N    2.7699365827   -1.4032955860    3.7880753136
 H    0.9584001238    2.0006914758    0.2442614527
 H   -0.1697187433    1.8822684618   -1.1079373318
 H   -0.7871285599    2.0709582020    0.5395232291
 H   -1.3252643568   -1.6121577324   -0.3664564873
 H   -2.2057825234   -0.1046531434   -0.0378054174
 H   -2.1977216491   -0.5009823302   -2.2835155527
 H    1.1830243257   -1.6623728325   -0.6153801076
 H    2.1379133137   -0.1737948756   -0.1849816265
 H   -0.0341185990   -1.5337606266    1.5648864462
 H    1.6599415506    0.9953864095    2.0901218711
 H    0.3370752112    0.4639187191    3.1155499402