19

 O    0.3068210617    0.0433081588   -0.3853894907
 C    0.3044089144    1.2369638846   -0.3893914691
 O    0.8273892231    1.9723359295    0.6084931769
 C    0.8119040175    3.3998192113    0.4770536949
 C    2.2150848167    3.9285215550    0.2025333627
 C    2.2562706908    5.4586590127    0.1524170906
 C    3.6758591462    5.9968382769   -0.1181677838
 C    3.7288164536    7.4524809347   -0.1697034805
 C    3.7435180379    8.6536646638   -0.2073116417
 H   -0.1284877371    1.8594206855   -1.1983304633
 H    0.1173374298    3.6945892650   -0.3211146727
 H    0.4222694955    3.7920372617    1.4215357771
 H    2.8873043198    3.5552313209    0.9841865528
 H    2.5745373787    3.5094210358   -0.7460403906
 H    1.5819634613    5.8307548447   -0.6280501510
 H    1.8934858605    5.8762309498    1.0989565922
 H    4.3581063430    5.6322446404    0.6608838040
 H    4.0487848389    5.5829058580   -1.0642420719
 H    3.7706845377    9.7144692308   -0.2426343561