16

 O   -0.0711012172   -0.0152643662   -0.3019795315
 C    0.0162340345    1.1410647520    0.0278025316
 C    1.2741102167    1.9193420758    0.0563468125
 C    1.2089902681    3.4389793366   -0.1804564517
 C    1.5004265681    2.9255316177    1.1740901170
 C    0.7307337071    3.1014997840    2.4970272498
 C    2.1387064941    3.2311551473    3.1410098970
 O    2.5789369139    3.4065680127    4.2412385371
 N    2.7366476624    3.0636999121    1.9072359916
 H   -0.8832991486    1.7202264474    0.3466160816
 H    2.1454752406    1.3893830843   -0.3145535461
 H    2.0125141391    3.8719697799   -0.7659806261
 H    0.2293883622    3.8687143201   -0.3686144868
 H    0.1212595215    4.0037092379    2.5699628100
 H    0.1640117148    2.2353506097    2.8416823237
 H    3.7045694027    3.0410940187    1.6212851504