15

 O   -0.0432324042    0.0019431094    0.1012867951
 C   -0.0380748149    1.1866170940   -0.0390802576
 C   -1.1670377537    2.2644957858   -0.1393475585
 C   -0.0528406836    3.2876348212    0.1503778800
 C    0.3012097534    4.2585433233    1.2458792877
 O    1.6824522522    4.0092589510    1.5282190416
 C    2.0397456764    2.6589962923    1.1920122023
 C    1.0308458757    2.2633080990    0.1504630633
 O    0.8689010361    3.2128291626   -0.9188523877
 H   -1.6848490411    2.3928341241   -1.0904615602
 H   -1.8911634196    2.1192056368    0.6673524038
 H    0.2176207477    5.3134563267    0.9697446534
 H   -0.3414780031    4.0698825081    2.1202561384
 H    3.0771683189    2.6777889042    0.8488999088
 H    1.9610923599    1.9839787414    2.0570215894