25

 C   -0.0442085555    1.6024675111    0.0819145894
 C   -0.0055366822    0.0717373451    0.0923358844
 C   -1.3915333184   -0.5602467451   -0.1016684951
 C   -1.4104186176   -2.0750967356   -0.0419452915
 C   -1.0389620074   -2.8741874728    1.2506649920
 C   -1.8486883791   -4.0036870794    0.5551777198
 C   -2.7543405866   -2.8705085090   -0.0007805738
 C   -0.9638272778   -4.3284732475   -0.6636325479
 C   -0.6309540212   -2.8697750408   -1.1187904325
 H    0.9534344992    2.0298015891    0.2243962872
 H   -0.4365067219    1.9821498246   -0.8682611016
 H   -0.6886598392    1.9872586953    0.8803893396
 H    0.6741108679   -0.2798473265   -0.6935111719
 H    0.4208271724   -0.2767742716    1.0418931503
 H   -2.0718872361   -0.1643143077    0.6652407292
 H   -1.8045172448   -0.2344057714   -1.0676823310
 H    0.0194468622   -3.0547672113    1.4653801539
 H   -1.5398470427   -2.4805620699    2.1394109842
 H   -2.2586098042   -4.8447527231    1.1152852146
 H   -3.4458714049   -2.4738984295    0.7475237684
 H   -3.2815670341   -3.0438715249   -0.9451531442
 H   -0.0708952178   -4.8987030531   -0.3901836730
 H   -1.5020208724   -4.8965606751   -1.4283478519
 H   -0.9922445305   -2.6478526453   -2.1283100476
 H    0.4422915328   -2.6605475457   -1.0962552909