18

 O    0.0552001091    0.1177128660    1.0781488948
 C    0.0246438567    1.2174783043    0.5741271161
 N    1.0780292343    1.8321443144   -0.0404185651
 C    2.3477694429    1.2046990322   -0.2248333185
 C    3.2264967606    0.9403041031    0.9834355054
 C    3.6414997174    1.9563441448   -0.0505392963
 O    4.5538519988    1.5971513230   -1.0488631852
 C    4.1090040831    0.3643940980   -1.6262451863
 C    2.5783133125    0.3089066020   -1.4387191560
 H   -0.8781092421    1.8623496196    0.5723405111
 H    0.8988123724    2.7075311397   -0.5100774565
 H    2.8639423785    1.3280108446    1.9280028819
 H    3.7459907551   -0.0084503198    1.0555052716
 H    3.6918535085    3.0100603491    0.1991535799
 H    4.4209202347    0.3569764434   -2.6735431054
 H    4.5955299242   -0.4818239877   -1.1231600332
 H    2.2139118187   -0.7116572312   -1.2979207241
 H    2.0566032045    0.7427878846   -2.2987498442