15

 O    0.4960883834    0.3268737766    0.8693203817
 C   -0.1657214922   -0.0695677281   -0.2421781281
 C   -1.4896363661   -0.3850701913   -0.2188957726
 N   -2.3283202646   -0.2715826220    0.8993889449
 H   -1.8088559930    0.1149065932    1.6790427348
 H   -2.7292570992   -1.1600784861    1.1847766587
 N   -2.0880133134   -0.7959337948   -1.3914079855
 C   -1.3938950270   -0.8990699273   -2.5605172267
 C   -0.0691950018   -0.5994165483   -2.6274128759
 C    0.6373853936   -0.1439957102   -1.4526940578
 O    1.8400697151    0.1574296215   -1.3739080202
 H    1.4036226208    0.4717141704    0.5230708043
 H   -3.0901871411   -0.8977036505   -1.3882244207
 H   -1.9702045591   -1.2328075887   -3.4142317307
 H    0.4691528445   -0.6971733044   -3.5611958162