18

 O   -0.5858585528    1.3407484855   -1.0111447605
 C   -0.1948879482    0.3157295928   -0.1009139693
 C   -1.4309881009   -0.5373936146    0.1462891731
 C   -1.1414883632   -1.7552848429    1.0146847497
 O   -0.7235317658   -2.9005744475    0.2700260429
 C    0.4598717157   -2.9425257783   -0.3993111374
 N    0.9131999136   -4.0613774260   -0.8114439814
 C    1.2567300219   -1.7420611365   -0.7148011372
 C    1.0052720148   -0.4330723807   -0.6168637236
 H    0.1680262255    1.9202034471   -1.1620112548
 H    0.0997279624    0.7723709491    0.8629047660
 H   -2.1879045189    0.0904171758    0.6272533506
 H   -1.8471446370   -0.8679648170   -0.8110088536
 H   -0.4022438366   -1.5232881175    1.7937422988
 H   -2.0527625432   -2.0919983945    1.5138081783
 H    0.2733078798   -4.8099289485   -0.5363975714
 H    2.2119394157   -2.0430947298   -1.1320653973
 H    1.8054012772    0.2290390136   -0.9503673128