21

 C    0.1819701613    1.2230325232   -0.1879930606
 O   -0.1903735650   -0.0744818167    0.2434567667
 C    0.5511639656   -0.5596247454    1.2941791177
 C    0.6798621535    0.0093753883    2.7055737424
 C    1.8303682158   -1.0265692403    2.8727397200
 C    1.1090145136   -2.3997882967    2.8201940760
 C    0.8137893222   -2.0720500897    1.3557244333
 C    0.3126144361   -2.9991396911    0.2899295993
 C    1.9768689844   -1.0863968776    1.2986912946
 H    1.2435032092    1.2627916791   -0.4683658745
 H   -0.4320024207    1.4549111521   -1.0611382966
 H   -0.0040743297    1.9792085668    0.5866163770
 H    1.0644562983    1.0336740245    2.6965898066
 H   -0.1732454094   -0.0618171151    3.3907089705
 H    2.6380282433   -0.8369152578    3.5755501112
 H    1.8120263176   -3.2352366971    2.8990891955
 H    0.2706280379   -2.5592099956    3.5100612269
 H   -0.6956972136   -3.3598439482    0.5257723289
 H    0.2599312353   -2.4897498227   -0.6761145077
 H    0.9642520224   -3.8738744134    0.1855162407
 H    2.8087843020   -0.9891134068    0.6163306316