21

 C   -0.0181893409    1.5574259503   -0.0566294201
 C    0.0395793162    0.0291518992   -0.0013520956
 C    0.7263709583   -0.5063598456    1.2512768733
 C    0.6691135369   -2.0387552407    1.3540258236
 C    1.6428208641   -2.5723114321    2.3903403239
 O    3.0096236780   -2.6894122439    1.9716509847
 C    2.6869430515   -1.6867639357    2.9300463574
 C    2.7535231484   -0.2547565331    2.4451975450
 O    2.0780842662   -0.0577585628    1.2233084178
 H    0.9878519569    1.9804111400   -0.0021344345
 H   -0.4858840801    1.9004318218   -0.9843015167
 H   -0.5999184859    1.9625684332    0.7791326333
 H   -0.9724967806   -0.3919438206   -0.0444267226
 H    0.5802399795   -0.3583008480   -0.8735623105
 H    0.2347008947   -0.0786539730    2.1448940805
 H   -0.3501959889   -2.3472671877    1.6120089833
 H    0.9106823369   -2.4871467859    0.3833552841
 H    1.3007159981   -3.4097363806    2.9979818839
 H    3.0789170792   -1.8578799431    3.9340323239
 H    2.3394540938    0.3975019609    3.2352653100
 H    3.7940522178    0.0416450473    2.2748139353