15

 O    0.0129786762   -0.0309448722   -0.3189293937
 C    0.2360847077    1.1136295267   -0.0293711945
 C    1.3187915401    1.9627138038   -0.6806225430
 N    0.9685470749    3.3777669419   -0.6076450785
 C    2.0448133489    4.2998403648   -0.8668031243
 C    2.4812313264    4.3901660343   -2.3292727606
 O    1.9195590314    3.8343087182   -3.2378622727
 C    3.6538804481    5.2573804823   -2.5723177592
 N    4.5757958212    5.9412536215   -2.7133120045
 H   -0.3313412776    1.6497963403    0.7645227137
 H    2.2294739005    1.8051870023   -0.0835375886
 H    1.5198410381    1.5765323790   -1.6888172768
 H    0.1965069213    3.5737700190   -1.2369351167
 H    1.7614543747    5.3189999039   -0.5624054539
 H    2.9216848981    4.0462840742   -0.2569999969