18

 O    0.3839683953    0.8139346750    1.1814435869
 C    0.1263661743    0.0287203810    0.0237238535
 C   -1.2679941441   -0.5856470755    0.0151797796
 C   -1.6671738682   -1.9695672970   -0.3029296444
 C   -0.8329663941   -3.0807538887    0.3663736948
 O    0.5850611280   -2.8621492855    0.5484142829
 C    0.3626932831   -2.3422981348    1.8985331781
 C   -1.1579186063   -2.4494659845    1.7133377715
 N   -1.9830856995   -1.3448560794    1.0730929392
 H   -0.3712135030    1.3931889964    1.3292693538
 H    0.2016261756    0.6412495672   -0.8887876623
 H    0.9068232496   -0.7247471770   -0.0243189556
 H   -1.9988578682    0.1291154635   -0.3698461325
 H   -2.4615943543   -2.1866756456   -1.0124962612
 H   -1.0734369191   -4.1029489019    0.0674958197
 H    0.7537093080   -3.0442401808    2.6449588278
 H    0.7866347600   -1.3494795922    2.0593184173
 H   -1.7458140273   -2.9276754503    2.4943817109