20

 C   -0.1670464951    1.5890976196    0.2591131756
 C   -0.0019568861    0.1136036855    0.0291747065
 C   -1.1666519390   -0.8776410199   -0.1361892232
 C   -0.3765436310   -1.9471152143    0.6785533836
 C    0.7934731014   -0.9681488890    0.8195919541
 C    1.2394028963   -0.4850796720   -0.5300261409
 O    1.1742639973   -1.2850819228   -1.6925100799
 C    2.0781654848   -2.2847267439   -1.7732236128
 N    2.1408883949   -2.9945339813   -2.8150139532
 H    0.7866511104    2.0665292695    0.5065315502
 H   -0.5627363683    2.0825761800   -0.6368676753
 H   -0.8638302341    1.7862281522    1.0813519934
 H   -2.0674393352   -0.5429330451    0.3831211062
 H   -1.4215869448   -1.1347956453   -1.1668045046
 H   -0.8489238929   -2.1689409492    1.6373392741
 H   -0.1578692385   -2.8905564511    0.1701908890
 H    1.4301653959   -0.8624246204    1.6916302040
 H    2.1063790745    0.1733994219   -0.5218958442
 H    2.6965531922   -2.3843396234   -0.8712077026
 H    2.8642228374   -3.7026260111   -2.7062403399