23

 C    0.1126498578    1.4734552125    0.5936061364
 C    0.5317755615    0.0584954333    0.2301319998
 O    0.5889048248   -0.7039436820    1.4242851664
 C    0.7340029945   -2.1028316488    1.2583898578
 C    1.9499265797   -2.5095680419    0.4043279802
 O    3.1576824119   -1.9254438487    0.8356071848
 C    0.7932599616   -2.7090248267    2.6629741364
 O    2.0058492763   -2.4324144894    3.3567308024
 C    1.9846308360   -1.2407395425    4.1324583815
 H    0.8349477724    1.9213225493    1.2823292617
 H    0.0606059500    2.0973649857   -0.3037543758
 H   -0.8685566287    1.4741738906    1.0768212950
 H   -0.1952302972   -0.3891663846   -0.4682163662
 H    1.5117903115    0.0655360889   -0.2656154523
 H   -0.1649435611   -2.5190639640    0.7628835381
 H    1.9952927865   -3.6129052589    0.3975714826
 H    1.8015188510   -2.1984123908   -0.6348899178
 H    3.2066087300   -2.1016437171    1.7856887580
 H   -0.0676095829   -2.3576336064    3.2477577254
 H    0.7305811326   -3.7997622330    2.5769479182
 H    2.9385785299   -1.1959451067    4.6638227586
 H    1.8636336460   -0.3528750174    3.5051506898
 H    1.1696939659   -1.2723303914    4.8697595493