19

 C    0.0541845865    1.5628418532   -0.0589580697
 C    0.0678656157    0.1073405324   -0.0233872106
 C    0.0810858266   -1.0976427894    0.0043885639
 C    0.0928733948   -2.5476082203    0.0413553116
 C   -0.0201172058   -3.2665602178    1.4134418808
 C   -1.5688122049   -3.0413564184    1.5028148386
 C   -1.8387308673   -4.5323479342    1.7861503239
 C   -0.6756860907   -4.5380666867    0.7746828750
 C   -1.2576965540   -3.3128837468   -0.0093484651
 H    0.8069842949    1.9517232884   -0.7538602950
 H   -0.9208011373    1.9458055493   -0.3811365792
 H    0.2656567271    1.9889948607    0.9283300948
 H    0.8673682005   -2.9565301608   -0.6190110269
 H    0.6857960954   -3.2467011360    2.2451933416
 H   -2.0644558744   -2.1584730369    1.9051963290
 H   -1.6152458669   -4.8913023612    2.7961108382
 H   -2.7956946871   -4.9354921539    1.4390081243
 H   -0.1403330273   -5.3820120788    0.3364944803
 H   -1.9834031259   -3.3466346127   -0.8234313756