21

 C   -0.3872032948    1.5723293241    0.2897465221
 C   -0.1202328655    0.0868209670    0.1306176471
 C   -1.3456939532   -0.6801485260   -0.3786728136
 O   -1.6521307092   -0.2923494056   -1.7035555753
 O    0.9692918159   -0.1551426524   -0.8240881608
 C    1.7233299524   -0.9211302296    0.1440317662
 C    0.6904061772   -0.6247278227    1.2226809810
 C    0.9381750079   -0.2007537499    2.6362715739
 C    0.2202045221   -1.4999923231    2.3437802282
 H    0.5357573406    2.1093066804    0.5208757025
 H   -0.8131101266    1.9702283178   -0.6351479877
 H   -1.1068083478    1.7480995885    1.0972408757
 H   -1.1490123093   -1.7613238038   -0.3110916875
 H   -2.2269841962   -0.4605192457    0.2343916633
 H   -0.8198749928   -0.3729816791   -2.1882300510
 H    1.8177227447   -1.9752468138   -0.1489793765
 H    2.7251735554   -0.5020519156    0.3000162095
 H    1.9567322232   -0.2488328586    3.0089158110
 H    0.3573674051    0.6236868631    3.0371044350
 H   -0.8442326581   -1.5502721814    2.5496241997
 H    0.7490047791   -2.4318532834    2.5183613871