18

 N   -0.0369839788    1.2006728861    0.7626131085
 C   -0.0133645397    0.0872581619    0.1688113658
 C   -1.2387401610   -0.7721838789   -0.1227934102
 C   -0.7039371103   -1.9405519254   -0.9537051743
 C   -0.7209642175   -1.8790043035   -2.4942785996
 C   -0.1450385629   -0.5896333289   -2.9978014614
 C    0.8023058670   -1.6561977038   -2.5263349804
 C    0.8350541959   -1.7231105986   -0.9965261255
 O    1.1294195703   -0.5166680613   -0.2908907784
 H    0.9065675503    1.5834572558    0.8429530737
 H   -1.6722033467   -1.1006900366    0.8257420691
 H   -1.9962105519   -0.1737784558   -0.6339421754
 H   -0.9989743249   -2.9170210045   -0.5699495873
 H   -1.3180978341   -2.5256182981   -3.1248160131
 H   -0.1768146007   -0.4651128024   -4.0752616361
 H   -0.2606726192    0.3408275731   -2.4501716054
 H    1.5475639474   -2.0919783097   -3.1795486455
 H    1.4587194468   -2.5227938394   -0.5937143443