18

 C    0.0346354550    1.3877665843   -0.0918745557
 N    0.0458652412   -0.0659201608   -0.0459456812
 C    0.6126913588   -0.6394798847    1.0981069639
 C    1.2133711361   -0.0807246921    2.2018221647
 C    1.7307223630   -1.1604276041    3.0003163028
 N    2.3331916762   -1.0439561020    4.2711803530
 C    1.4184847907   -2.3223864320    2.3556025228
 O    1.7016932328   -3.6219757352    2.6783973632
 N    0.6895237974   -2.0104839081    1.2016381859
 H    1.0649855646    1.7560664650   -0.0740671156
 H   -0.4279801406    1.7116250166   -1.0275419337
 H   -0.5053993585    1.8562576526    0.7468322118
 H   -0.8712222192   -0.4497416043   -0.2430951300
 H    1.2454365080    0.9673234765    2.4538250861
 H    2.9837004098   -0.2671724980    4.3035332356
 H    2.8429626561   -1.8903071382    4.4999975839
 H    1.0002866649   -3.9724942841    3.2419483048
 H    0.6647701037   -2.6204559914    0.4008921275