23

 C    0.0584187220    1.4032428845   -0.1973343747
 C   -0.1666778509   -0.0936415400    0.0254282511
 C   -1.6504969976   -0.5143604871    0.0991503336
 C   -2.3550934169   -0.5019383377   -1.3082883310
 C   -2.0975790718   -2.0254136420   -1.4354980138
 C   -1.8006687971   -2.0786943070    0.0854248393
 C   -2.3483162394    0.1759756709    1.1731609311
 C   -2.9380999934    0.7324122495    2.0657254256
 C   -3.6535256453    1.4032273160    3.1426455196
 H    1.1276895491    1.6333602412   -0.2356668546
 H   -0.3866796486    1.7425899835   -1.1387859206
 H   -0.3879208833    1.9882246113    0.6118607594
 H    0.3124249906   -0.6648533723   -0.7799508396
 H    0.3208180985   -0.4038719483    0.9578883867
 H   -3.4169478875   -0.2646314717   -1.2184456690
 H   -1.9135452172    0.1513400995   -2.0650985659
 H   -2.9279347228   -2.6359345812   -1.7961493963
 H   -1.2189586451   -2.2538120111   -2.0440992985
 H   -0.9240082838   -2.6436432784    0.4142548326
 H   -2.6660486200   -2.4010866974    0.6679416505
 H   -4.5534132981    0.8484825011    3.4316005056
 H   -3.0276093356    1.5039244839    4.0365247352
 H   -3.9684831657    2.4102486726    2.8463990236