14

 C   -0.0810812440    1.5656049767    0.0046148862
 C   -0.0075712174    0.0464860717    0.0164681627
 C    1.2186499222   -0.6511459401   -0.6569249374
 N    2.0442705315   -0.1512279202    0.5294870775
 C    0.7579488278   -0.6590939857    1.1826209511
 C    0.9144679592   -1.8738712286    0.2390921497
 O    0.9762467854   -3.0639117683    0.2494231915
 H    0.8840755655    2.0108743506    0.2483834210
 H   -0.3933434838    1.9225768715   -0.9822676413
 H   -0.8225317697    1.9151694207    0.7305132082
 H   -0.9706882804   -0.4104012137   -0.2267108169
 H    1.5770647179   -0.5733733786   -1.6820190090
 H    2.8299930586   -0.7783584554    0.7235570515
 H    0.5907585073   -0.5903920106    2.2562386750