21

 O    0.4167544651    0.3042727164   -1.4680988810
 C    0.0301334382    0.2435823881   -0.0993224801
 C   -1.2998088749   -0.4825821145    0.0731885913
 C   -1.4233845340   -1.9827490382   -0.2319089891
 C   -1.0312695473   -2.8613006132    0.9505856674
 C   -0.1227271283   -2.3216026176    2.0536211402
 C   -0.8675556663   -1.0551744631    2.5638052689
 C   -1.9254848465   -0.7679680147    1.4846916402
 C   -2.3594305958   -2.1658931743    0.9547048306
 H    0.5238230352   -0.6023093758   -1.7741218171
 H    0.8231962514   -0.2135795047    0.5086800959
 H   -0.0663966728    1.2861447078    0.2259010680
 H   -2.0416422336    0.0467156141   -0.5354848742
 H   -1.5234215368   -2.4158770413   -1.2218357543
 H   -1.0097159687   -3.9229840475    0.7272180695
 H   -0.0090962411   -3.0644362960    2.8499138188
 H    0.8852291966   -2.0955178873    1.6910359962
 H   -1.3675781516   -1.2669535820    3.5154494713
 H   -0.1966313671   -0.2075959718    2.7354298413
 H   -2.7018193383   -0.0695417608    1.7978819184
 H   -3.3336567836   -2.6320494336    1.0133985777