23

 C   -0.0484037079    1.5603694849   -0.0158879823
 C   -0.0040781610    0.0222956083    0.0372456618
 C    0.7062077356   -0.4917136235    1.2048382681
 C    1.3020145649   -0.8952620987    2.1718888672
 C    2.0214812100   -1.3910135420    3.3509646958
 C    2.0330690176   -2.9366357925    3.3496325748
 C    3.4704429164   -0.8531527664    3.3501517675
 C    1.2765286455   -0.8770277736    4.6038249085
 O    1.9568383563   -1.3463826472    5.7586596628
 H    0.9621165561    1.9768711230   -0.0462952685
 H   -0.5878654244    1.8974471155   -0.9062535734
 H   -0.5523617189    1.9650092075    0.8661708535
 H   -1.0282590387   -0.3729197380    0.0282329738
 H    0.4716900175   -0.3604385059   -0.8750876874
 H    2.5679382154   -3.3144042009    2.4740617961
 H    2.5240113452   -3.3056044710    4.2531712936
 H    1.0135389927   -3.3325689220    3.3209514950
 H    3.4784504124    0.2405211921    3.3194853347
 H    3.9883561258   -1.1791468506    4.2550491144
 H    4.0145978685   -1.2208875827    2.4760118157
 H    1.2482287218    0.2225187916    4.5757213605
 H    0.2385728974   -1.2407566772    4.5755291122
 H    1.4902366918   -1.0239023008    6.5344570256