11

 N   -0.0691958881    1.2563931520    0.0080563488
 C   -0.0335384247    0.0018645006    0.0008970735
 C   -1.2402716870   -0.9194303717    0.0026904825
 N   -0.5923832775   -2.2096790458   -0.0066195530
 C    0.7668749039   -2.1338543612   -0.0153140533
 O    1.5850583453   -3.0030911142   -0.0254747691
 O    1.1026590448   -0.7745393360   -0.0099714274
 H    0.8704830571    1.6547080351    0.0048290085
 H   -1.8536867360   -0.7500582430    0.8946375061
 H   -1.8626570951   -0.7416871813   -0.8814176674
 H   -1.0549813028   -3.1012914045   -0.0110527992