25

 C   -0.0505277036    1.5463085425    0.0669063930
 C   -0.0099075850    0.0042487213    0.0423145573
 C    0.7032471575   -0.4829292944    1.3196830047
 C   -1.4633462293   -0.5124156651    0.0704498680
 C    0.7329123810   -0.5078776413   -1.2688500971
 C    2.1936357487    0.0064233873   -1.3554948354
 C    0.7757042553   -2.0560457201   -1.3532683553
 C    0.0204648876   -0.0195287485   -2.4590571399
 C   -0.5341372468    0.3604889612   -3.4569665139
 H    0.9467374512    1.9836498480    0.1680639437
 H   -0.5083039637    1.9466690745   -0.8416262492
 H   -0.6421281865    1.8886365945    0.9223277869
 H    0.1652866251   -0.1131877766    2.1991323054
 H    0.7279643980   -1.5738068067    1.3923669597
 H    1.7296281110   -0.1122223927    1.3905571319
 H   -2.0026226844   -0.2325247081   -0.8384783021
 H   -1.5125463826   -1.5998764724    0.1755799386
 H   -1.9946091696   -0.0804745406    0.9249147986
 H    2.7906289097   -0.3691447356   -0.5201922394
 H    2.6525196233   -0.3493762950   -2.2819214694
 H    2.2451318585    1.0964688504   -1.3600048234
 H   -0.2236546330   -2.4943673061   -1.3570519390
 H    1.2720961547   -2.3584115233   -2.2793410016
 H    1.3402354073   -2.4778702281   -0.5174711828
 H   -1.0287200547    0.6994679349   -4.3333969996