18

 N    0.6320621046   -0.4081478594    0.3554976227
 C   -0.2352346794    0.1043904399   -0.5519695750
 O    0.0768295631    0.8469952860   -1.4637471498
 C   -1.7046487994   -0.2901974966   -0.3143254878
 C   -2.4138364131   -0.7489850922   -1.6120390236
 C   -2.5471418229   -2.2534781649   -1.4408296772
 C   -1.2896132965   -3.0403984745   -1.1098095192
 C   -2.1918668735   -2.5370780170   -0.0137745817
 O   -1.8418325361   -1.3425834225    0.6510043400
 H    1.6049402863   -0.1577664071    0.3042444786
 H    0.2882369782   -1.0160410949    1.0797781346
 H   -2.1813379721    0.6013400353    0.1087436837
 H   -3.4081392007   -0.2995162314   -1.6849369809
 H   -1.8373682208   -0.4365874017   -2.4854414946
 H   -3.3684909087   -2.7595360383   -1.9337316797
 H   -1.3075918918   -4.1057995636   -1.3144346236
 H   -0.3194284239   -2.5749639704   -1.2452354624
 H   -2.7328762835   -3.2151524566    0.6352977658