13

 C   -0.0587625118    1.3210506711    0.0878909683
 O    0.0226136529   -0.1096755975   -0.0278268207
 C    0.6429282760   -0.5570831913   -1.1223328672
 O    1.1229572266    0.1283523425   -1.9906958444
 C    0.6849654630   -2.0357331128   -1.1676971487
 C    1.2234599366   -2.8579237083   -2.1096579695
 N    0.9990446122   -4.1430294462   -1.6850140285
 N    0.3817482147   -4.1423744521   -0.5858722841
 O    0.1526519452   -2.7895639191   -0.2052389902
 H    0.9422960785    1.7575309561    0.1141882347
 H   -0.6086659245    1.7398719299   -0.7579910118
 H   -0.5862991166    1.5075535641    1.0222235808
 H    1.7355841171   -2.6226692065   -3.0258084287