19

 O    0.1280715318    1.3639680050    0.2562246855
 C    0.0144254594   -0.0106938456    0.0238207045
 C   -1.4637481151   -0.4555774613   -0.0329289151
 C   -1.6222973794   -1.9258878232   -0.4108020356
 C   -1.8574466682   -2.3063266561   -1.8536181094
 C   -0.5341329953   -2.6243711859   -1.2101782776
 C    0.7268557061   -1.8713786347   -1.6160045876
 C    0.6965012934   -0.3942085624   -1.2819543565
 O    1.1919433702    0.4643689342   -1.9814215965
 H    0.6047546264    1.7117452647   -0.5155376178
 H    0.5115425155   -0.5786446256    0.8292441028
 H   -1.9125556925   -0.2574850076    0.9441219782
 H   -1.9774667449    0.1977453177   -0.7467971016
 H   -2.1225754359   -2.5412048615    0.3296998029
 H   -2.5328704455   -3.1243529609   -2.0778568365
 H   -1.8846731471   -1.4972434078   -2.5786371424
 H   -0.3650317369   -3.6700891770   -0.9735232561
 H    1.5791131422   -2.2787200284   -1.0527929925
 H    0.9669142356   -1.9886668037   -2.6773846886