15

 N   -0.0078551951    0.9450171263    0.7098455029
 C   -0.0301343363   -0.1329837730    0.0666904087
 C   -1.2730227025   -0.9378407354   -0.2878268132
 C   -0.7379632340   -2.1499104392   -1.0254288618
 C    0.7412988653   -1.9501277272   -1.0951049024
 O    1.0954332342   -0.7712452671   -0.4299371682
 C    0.1930321526   -3.0974296996   -0.2551141650
 C    0.2598519580   -3.0692395052    1.1767301596
 N    0.3004481984   -3.0448527809    2.3325111202
 H    0.9466111373    1.2849927837    0.8320241354
 H   -1.8306378469   -1.1778357075    0.6208588487
 H   -1.9278762038   -0.3448634485   -0.9316284467
 H   -1.3009028597   -2.5757264437   -1.8456763374
 H    1.3667446592   -2.1629001971   -1.9527603382
 H    0.3094545932   -4.0851529855   -0.6896848427