17

 C   -0.0095018923    1.6398508037    0.0802424121
 C    1.4718725326    1.1933239508   -0.0021649207
 N    1.1468028278    0.2082164593    1.1074563812
 C    0.0155754365    0.0907847095    0.1005294804
 C    1.0502280420    0.1329689055   -1.0699334863
 C    0.6589856748    0.5147967512   -2.5187675768
 O    1.3425546735   -0.4644776424   -3.3386025828
 C    2.0031767704   -1.2555452090   -2.4634255701
 N    1.9197622509   -1.0294748025   -1.2192878223
 H   -0.2921325975    2.1012449134    1.0258680809
 H   -0.4488801559    2.1396081530   -0.7850743772
 H    2.3742148742    1.8077977138    0.0120739295
 H    1.7562797864   -0.6070818533    0.9972595046
 H   -0.8139156093   -0.6058873191    0.2368932647
 H   -0.4134798620    0.4349980871   -2.7182569695
 H    1.0044136682    1.5084466582   -2.8182437124
 H    2.5748110797   -2.0535070692   -2.9240952651