11

 O   -0.1703608287   -0.0079348829    0.2451478966
 C   -0.0445793442    1.1808979470    0.1504897993
 C    1.2685210469    1.8913181537   -0.0604380962
 N    2.3360163378    1.1668181982   -0.1456934314
 O    3.5220351502    1.8348404767   -0.3378867795
 C    3.5923660342    3.2199557269   -0.4384344674
 O    4.6537199682    3.7436305350   -0.6059605849
 C    2.2908475465    3.8984813196   -0.3203830976
 N    1.1842194361    3.2750973579   -0.1411116065
 H   -0.8922729079    1.8930124906    0.2089185006
 H    2.3017418409    4.9842031873   -0.3933629732