18

 C    0.5708630993    0.3806320528    0.8202253187
 C   -0.1675130822    0.2804153337   -0.5161334581
 N    0.5077097229   -0.3482609573   -1.6418704251
 C    1.6781678094   -0.7993204364   -1.5103613962
 N    2.3525378915   -1.4140012971   -2.5913601761
 C    3.6537028818   -1.9069778719   -2.4179531635
 N    4.2557894688   -1.8183128443   -1.3050108219
 C    1.7443581813   -1.5441129835   -3.8476189679
 O    2.2803368425   -2.0604617834   -4.7974895173
 H    0.8311538447   -0.6054411030    1.2186634738
 H    1.4913212854    0.9675660933    0.7358989194
 H   -0.0726179760    0.8756709233    1.5533155207
 H   -1.1115775188   -0.2625740283   -0.3760980392
 H   -0.4628015984    1.2837531172   -0.8505221079
 H    2.2983427085   -0.7851150960   -0.6151807931
 H    4.0293787454   -2.3481082622   -3.3416980543
 H    5.1844771729   -2.2293031430   -1.3737867858
 H    0.7326798110   -1.1194414640   -3.8475861860