19

 C   -0.0060234929    1.6906782771    0.2009052496
 C   -0.0335813809    0.1628913119   -0.0082861903
 C    0.7069809888   -0.5268834600    1.0484530903
 C    1.2993864743   -1.0807101678    1.9360576875
 C   -1.4611279106   -0.3725982999   -0.0815590607
 C   -2.4181508607   -0.1281048962   -1.2371209013
 C   -1.6889463418   -0.2714337938   -2.5685078711
 O   -1.1178566316   -1.5463553139   -2.1694175866
 C   -1.8712075052   -1.5156701190   -0.9525706328
 H    1.0223017927    2.0604456160    0.2282289180
 H   -0.5372364953    2.1935676958   -0.6127070170
 H   -0.4880849614    1.9612369454    1.1451837357
 H    0.4545616830   -0.0712603819   -0.9619234475
 H    1.8331731533   -1.5774907628    2.7077245752
 H   -1.9823618575   -0.3699213402    0.8737565187
 H   -3.4096774498    0.2827712666   -1.1032551763
 H   -2.3675311106   -0.4091702654   -3.4174901231
 H   -0.9230457056    0.4692344716   -2.8277750117
 H   -2.3266057280   -2.4414062837   -0.6200879868