12

 C    0.0321556801    1.3616991872   -0.0029522689
 O   -0.0160949119   -0.0743301036   -0.0707579900
 C    0.5787430542   -0.6480449598   -1.0911099506
 N    0.6333622122   -1.9303841390   -1.3096455213
 C    1.3525641018   -1.9562914451   -2.4755259790
 O    1.6588275792   -3.0983721440   -3.0867464645
 N    1.7308603433   -0.8031949840   -2.9703779930
 O    1.1905350183    0.1042713384   -2.0042732818
 H    1.0665147945    1.7087064714    0.0593398361
 H   -0.4500528418    1.8039314091   -0.8782237161
 H   -0.5115732253    1.6240592827    0.9032070407
 H    1.2850834054   -3.8116456133   -2.5546486714