15

 O   -0.2420514132    1.4295641098   -0.3410175451
 C   -0.0245615680    0.0689890772    0.0294704437
 C   -1.4201862946   -0.5760808847    0.0337300699
 O   -2.4107164498    0.1225554807    0.7169026954
 C   -1.6783497645   -0.7919488035   -1.4758829634
 O   -2.7268308116   -0.6233282669   -2.0339153897
 C   -0.3406796518   -1.1623332691   -2.1155869784
 C    0.7073338109   -0.6015597368   -1.1530060436
 O    1.9008651951   -0.6099627641   -1.3007884813
 H    0.6146852666    1.8660177849   -0.4069270005
 H    0.5236409643   -0.0208444937    0.9729272860
 H   -1.3408619860   -1.5688548662    0.4991934954
 H   -2.4685613874    0.9983643662    0.3164403869
 H   -0.2294880088   -2.2535866035   -2.1612377284
 H   -0.2375099812   -0.7856200904   -3.1358893570