14

 O   -0.0308755534    1.4527318527   -0.1521576359
 C    0.0303876739    0.0400098056   -0.0105660010
 C    0.4834841268   -0.4435297847    1.4291275477
 O   -0.6630456476   -0.9562553264    2.1628127789
 C   -1.6416787434   -1.0372864164    1.2356075674
 C   -1.3368206371   -0.5412954185    0.0032133818
 N   -2.4804001418   -0.7317832993   -0.6934884693
 N   -3.4162663479   -1.3181803607    0.0854570487
 N   -2.8986614821   -1.5108039360    1.2840636264
 H    0.8654538696    1.7809810178   -0.2817010888
 H    0.6969699884   -0.3855534942   -0.7731234535
 H    1.2174357508   -1.2520529449    1.3556150694
 H    0.9047169555    0.3911398492    1.9944768883
 H   -2.7214406618   -0.4951250142   -1.6421399701