17

 C    0.2466503513    0.9965382855   -0.6086718163
 N   -0.4172620797    0.1602332358    0.4011489899
 C    0.4281643695   -0.4724708541    1.3257153251
 C    0.7919329106   -0.1915335601    2.6197832556
 C    1.6578157095   -1.2447487350    3.0625458116
 C    2.2906930026   -1.3800446715    4.3667079153
 O    3.0406982584   -2.2780564337    4.6917567335
 C    1.7993585874   -2.1290820274    2.0053464967
 N    1.0519017224   -1.6581004343    0.9721632720
 H    0.9210624581    0.3791500253   -1.2089263097
 H   -0.5100169014    1.4132443252   -1.2789873366
 H    0.8359490960    1.8201661533   -0.1785574498
 H   -1.1235256501    0.6943081355    0.8911842585
 H    0.4875534391    0.6723515500    3.1917843156
 H    2.0316737627   -0.5687840884    5.0855090447
 H    2.3704901317   -3.0399580256    1.9383243486
 H    0.9008718019   -2.1222666803    0.0917463454