14

 O    0.8816600351    1.1382089303    1.2930804774
 C    0.5174082840    1.6998323344    0.2949811825
 C    1.1548929152    1.4994225736   -1.0782056565
 N    1.2642571197    2.7600785396   -1.7844881719
 C    2.2862917262    3.6148173944   -1.4170110734
 C    3.0649181718    3.6876477473   -0.3001583791
 O    3.8798947279    4.7489228198   -0.4433056311
 N    3.5928120802    5.3244093113   -1.6828712457
 N    2.6675723919    4.6568890754   -2.2311369360
 H   -0.3286978867    2.4224536631    0.2908073177
 H    2.1138195323    0.9762206469   -0.9483005182
 H    0.4834398687    0.8448578605   -1.6465732190
 H    1.1279034803    2.7237099881   -2.7835931866
 H    3.1451795433    3.1157202853    0.6073218297