19

 C    0.4336641912    1.4425460532   -0.3812832400
 C   -0.1077455966    0.1136835069    0.1462911088
 O   -0.0292753590   -0.9046510478   -0.8729440168
 C    1.1708283371   -1.6388117931   -0.7288364036
 C    1.5836927557   -1.4979136394    0.7354564035
 O    2.4582386494   -2.1031775977    1.3048444685
 C    0.6750048730   -0.4634484714    1.3176219710
 C    1.1157579195    0.2803121920    2.5552841472
 C    0.0700818204   -0.7788512159    2.6788241015
 H    1.5030367411    1.3743338935   -0.6067800238
 H   -0.0958411724    1.7212957550   -1.2962403445
 H    0.2950525092    2.2409726983    0.3546146682
 H   -1.1724779516    0.2191539346    0.3800213161
 H    0.9947862971   -2.6858740484   -0.9946106148
 H    1.9799438890   -1.2572115916   -1.3729086481
 H    2.1135814333    0.0501583393    2.9141109721
 H    0.8148382751    1.3181322648    2.6474558297
 H   -0.9605663245   -0.4790147232    2.8365538338
 H    0.3545264329   -1.7254876992    3.1251769111