20

 N    0.1714973877    1.0919727087   -0.2769783822
 C   -0.0126372805   -0.2619727436   -0.3309951673
 O    0.8580854892   -1.0071875470   -0.7416469428
 C   -1.3823372135   -0.7280646126    0.1734594632
 C   -2.5163204789   -0.4591653912   -0.8742837102
 C   -2.8237322342   -1.8033683999   -1.5137700330
 C   -1.6765753997   -2.6073217778   -2.0780611042
 C   -2.1809399456   -2.8927291808   -0.6859197935
 C   -1.4311055026   -2.2487941178    0.4730484401
 H    1.0055121095    1.4722654969   -0.6938543062
 H   -0.5716842414    1.7220865201   -0.0310305324
 H   -1.5893550929   -0.1529562721    1.0821815578
 H   -3.4104921933   -0.0891472211   -0.3600009627
 H   -2.2267254997    0.3080454792   -1.6015577208
 H   -3.8080341657   -1.9385107871   -1.9490264904
 H   -1.9224232204   -3.3286300228   -2.8502703004
 H   -0.6995122903   -2.1496335377   -2.1835632767
 H   -2.6931476123   -3.8305884069   -0.5012035237
 H   -0.4203131582   -2.6465800414    0.5949794289
 H   -1.9782961573   -2.4231194150    1.4057499863