23

 C   -0.1990038269    1.5830102638   -0.0299752594
 C    0.0085601169    0.0762760902    0.0207644039
 C    1.2357424955   -0.5934802202   -0.6565664276
 C    2.1560753483   -0.1290724376    0.5221116361
 C    3.2228960165   -1.1951812002    0.7709624051
 C    2.3768086818   -2.4884311735    0.5666132880
 C    2.3557131715   -3.4318404451    1.7709671369
 C    1.0238733942   -1.8423668151    0.2572392328
 C    0.8097554725   -0.5900418182    1.1731380428
 H    0.7149862387    2.1460961755    0.1773268191
 H   -0.5597067043    1.8899362261   -1.0183490511
 H   -0.9529232150    1.8942938290    0.7020912090
 H   -0.9375143195   -0.4348676824   -0.1983667851
 H    1.4922098447   -0.6038785398   -1.7193660283
 H    2.4589139620    0.9157965716    0.5919711932
 H    4.0585587508   -1.1181607983    0.0673884706
 H    3.6408281923   -1.1319574831    1.7822737358
 H    2.7320883702   -3.0458030366   -0.3091277878
 H    2.0092445046   -2.9133000522    2.6723141778
 H    1.6872861646   -4.2830075919    1.5996532187
 H    3.3541932472   -3.8301234531    1.9807808931
 H    0.1706561173   -2.4964915609    0.0594589486
 H    0.5667874360   -0.5911937580    2.2387271079