18

 C    0.6818746797    1.2908189512   -0.0426977438
 N    0.8227464036   -0.0945255542   -0.4442338828
 C   -0.1392877704   -0.7515565902   -1.1430743174
 O   -1.2067416219   -0.2614599888   -1.4690528209
 C    0.1942692071   -2.2135435704   -1.4760026141
 C    1.5828818151   -2.4384692297   -2.1128093954
 O    2.6362092644   -2.1252369247   -1.2316989364
 C    1.7057585168   -3.8856909904   -2.5483640727
 O    2.5658591908   -4.6058884979   -2.1017836992
 H    1.4372272388    1.9247909153   -0.5211597650
 H   -0.3094538464    1.6249503836   -0.3503461270
 H    0.7760532777    1.3989110389    1.0434916253
 H    1.6929423990   -0.5803017132   -0.2797393387
 H    0.1340806481   -2.8125776154   -0.5591024743
 H   -0.5913247252   -2.5532945586   -2.1553862803
 H    1.6589873980   -1.8140314881   -3.0185861373
 H    3.1104611196   -2.9604276796   -1.0825638070
 H    0.9580789153   -4.2476377177   -3.2810571731