14

 O    0.3615636866    0.1533800619    0.5952069131
 C    0.1885131331    1.2351055065    0.0946108912
 C    1.2400837659    1.9725917863   -0.7354393953
 N    2.5253778001    1.3244726073   -0.8150472367
 C    3.2959450725    1.3534937739    0.4297613688
 C    4.6238707663    0.7694198359    0.2232380455
 N    5.6636264018    0.2909470589    0.0711703915
 C   -1.1022715691    1.9418635316    0.2267084336
 N   -2.0923759816    2.5339590233    0.3072858483
 H    0.8195566198    2.0989907097   -1.7434909266
 H    1.3475199157    2.9898460849   -0.3357235424
 H    2.4181918324    0.3649190189   -1.1272024515
 H    3.4258051587    2.3996848842    0.7331196092
 H    2.8185754979    0.8269927068    1.2700421511