25

 C   -0.4817075283    1.5163881148    0.4356723753
 C   -0.0574891366    0.0783746065    0.1113227248
 C    0.8947781763   -0.5510051012    1.1403509849
 C    2.1863002537    0.2463247671    1.3596063568
 C    3.0600445305    0.4046302781    0.1096928747
 C    0.1605816475   -0.9794624180    2.4378282948
 O    0.2097978151   -2.3702742372    2.0710091870
 C    1.1060245613   -2.0938893933    0.9696468861
 C    0.7180351756   -2.8376590760   -0.2929423790
 H    0.3575446963    2.2161604274    0.3803040886
 H   -1.2425679948    1.8612660259   -0.2710937002
 H   -0.9096628412    1.5912335086    1.4416101984
 H   -0.9571755670   -0.5442468076    0.0462228516
 H    0.3999044928    0.0506848719   -0.8849599997
 H    1.9415989308    1.2365400498    1.7631998777
 H    2.7699365394   -0.2565787711    2.1410846456
 H    3.9930311553    0.9225371565    0.3519639891
 H    3.3257341259   -0.5686016386   -0.3179248755
 H    2.5569903836    0.9828464818   -0.6715503130
 H    0.7177329868   -0.7785298423    3.3640059390
 H   -0.8708275305   -0.6271146037    2.5623171300
 H    2.1354569055   -2.3745275467    1.2454535365
 H   -0.2934752948   -2.5883143013   -0.6211163276
 H    1.4177900898   -2.6146721166   -1.1055930017
 H    0.7547773670   -3.9154383548   -0.1034042240