14

 O   -0.5134090860    0.5616643548    0.6801597000
 C    0.0267481762    1.1198421902   -0.2421026213
 C    1.2632565234    1.9331313989   -0.1031318556
 C    1.8264934120    2.6626799559    1.1462166644
 O    2.8575116277    1.6720945951    1.3534429160
 C    2.7460397363    1.4059546895   -0.0521493202
 C    3.0483732489    2.7203108882   -0.8132316998
 C    2.3547736447    3.6730391982    0.0939729327
 N    1.6117946567    3.0725867106   -1.0680227691
 H   -0.3601037102    1.0549842166   -1.2826729284
 H    1.2877180933    2.9608497396    2.0413902857
 H    3.1222982756    0.4380016952   -0.3742834011
 H    3.8416469334    2.9705642793   -1.5050977809
 H    2.5534638581    4.7339409277    0.1653863375