19

 C   -0.1091280891    1.5322736663    0.1117858228
 C   -0.0600460238    0.0194265580    0.1075610276
 O    1.2116543696   -0.5557285622   -0.2863214810
 C    0.8023320321   -0.7265560092    1.0538483779
 C    1.5420599522   -0.2038694477    2.2901343106
 C    0.9452403483   -1.4106238565    3.0765344864
 C    0.5294611269   -2.0716275214    1.7273237777
 C   -1.2259347385   -0.6411565711   -0.4315707590
 C   -2.2184313603   -1.1652488978   -0.8632224282
 H    0.8085058066    1.9398488537    0.5406583681
 H   -0.2135343025    1.9093363485   -0.9098088820
 H   -0.9656387445    1.8873637641    0.6932201179
 H    2.6258496461   -0.2798616679    2.1611940735
 H    1.3001145943    0.8016946349    2.6421509217
 H    1.6405994314   -1.9731921957    3.7010460573
 H    0.0827973927   -1.1247105233    3.6825517368
 H   -0.4833228960   -2.4704541255    1.6396350003
 H    1.2410431412   -2.8322812597    1.3933320884
 H   -3.0868842769   -1.6350419574   -1.2542739769