16

 C   -0.0178365844    1.5967807077   -0.1229242944
 C   -0.0035748523    0.0648620217    0.0125818300
 C    0.6987594806   -0.5923162859   -1.1525187686
 C    1.8016769086   -1.2719720507   -0.8231136557
 C    2.0287539917   -1.2236495605    0.6337997708
 O    2.9478691805   -1.6701090067    1.2667589868
 C    0.7823895847   -0.4903938863    1.2409254556
 C    1.1428122691    0.4832075304    2.2587108782
 N    1.4203201046    1.2679490144    3.0604683256
 H    0.9983551552    1.9998898672   -0.1553933947
 H   -0.5307966220    1.8880012685   -1.0445348053
 H   -0.5380407201    2.0579203391    0.7198881926
 H   -1.0439370378   -0.2793202168    0.0560783256
 H    0.3205254127   -0.4708440249   -2.1625910701
 H    2.4778976698   -1.7900797077   -1.4901948469
 H    0.1939816091   -1.2775360296    1.7281390305