14

 O   -0.0521344500    0.0330563049   -0.1154895192
 C    0.0114683720    1.2186765575   -0.2218617570
 O    1.0119120447    1.9386762862    0.3423452563
 C    1.0109637612    3.3338357745    0.1051722178
 C    2.1943159847    4.1179100679    0.7262768364
 C    2.3911098794    4.8925055204   -0.6150647871
 C    1.5010000492    3.8294895169   -1.2781769402
 O    1.3472914429    3.4152563474   -2.3873829151
 H   -0.7180836816    1.8446122878   -0.7668973061
 H    0.0403532796    3.7799732117    0.3600740289
 H    1.9685111675    4.7080564758    1.6136562285
 H    3.0264254510    3.4435673879    0.9354009755
 H    1.9204173810    5.8805904945   -0.6223179576
 H    3.4031994384    4.9838439266   -1.0135606911