18

 O    0.5712368629   -0.2626884447   -0.2356882569
 C    0.2054101644    0.8837397173   -0.2546461826
 C    1.0861678640    2.0682124466    0.0995024838
 C    1.1502341314    3.0792625134   -1.0269554290
 N    1.8687176762    2.7219785786   -2.2883781870
 C    2.3877349099    3.8081997300   -1.4287585641
 C    1.9943486641    5.2051555754   -1.8963483342
 C    0.4826309730    5.1861223481   -1.7852705501
 C    0.0243958340    4.0342694786   -1.2926673306
 H   -0.8349037193    1.1478695010   -0.5527934085
 H    0.6673568502    2.5482255751    0.9953605501
 H    2.0807471002    1.6864341105    0.3494479578
 H    2.4285884364    1.8862082372   -2.1182756203
 H    3.3281242652    3.6532566411   -0.9099871549
 H    2.4399333592    5.9844129617   -1.2644753267
 H    2.3264377769    5.3948449933   -2.9239481692
 H   -0.1333766467    6.0179789638   -2.1075319155
 H   -1.0179265420    3.7875208531   -1.1280338120