14

 C    0.1096018515    1.3759179555    0.0065765871
 O   -0.0073160171   -0.0451548949    0.0032651996
 C   -1.2390586254   -0.5676273650    0.0108913144
 C   -2.4209917559    0.0941151817    0.0215598422
 C   -3.6605897820   -0.6528082287    0.0287227466
 O   -4.7734898756   -0.2026301718    0.0377792642
 O   -3.5416827002   -2.0552419757    0.0235392341
 N   -2.3381720198   -2.7211014742    0.0126725228
 C   -1.2657511345   -2.0123932706    0.0068829091
 H    1.1781244700    1.5891626760   -0.0006821293
 H   -0.3614237579    1.8075696259   -0.8834145986
 H   -0.3482176769    1.8023145686    0.9059422649
 H   -2.5161453224    1.1704028029    0.0252974352
 H   -0.3336892338   -2.5675071497   -0.0016462224