19

 C    0.4073155141    1.5221923719   -0.2547315997
 C    0.1468469005    0.0603311514    0.0377381838
 O    0.8562504298   -0.8382413799   -0.8603954443
 C    1.2682345215   -1.6822528971    0.2443376110
 C    0.7560478097   -0.6492611941    1.2743420795
 C    2.0123684950   -0.0215487082    1.9268247062
 C    3.2078001616   -0.3767992056    1.0184240158
 C    2.7985233247   -1.6868415429    0.3426472883
 O    3.5256499920   -2.5731043456   -0.0207202056
 H    1.4676882213    1.7769829239   -0.1801407408
 H    0.0750884955    1.7581469531   -1.2706788511
 H   -0.1547365130    2.1563578967    0.4394589891
 H   -0.9328312660   -0.1365655116   -0.0337730231
 H    0.8345611820   -2.6850115330    0.1971887420
 H    0.0283549879   -0.9818632721    2.0147842966
 H    1.9036688327    1.0543387682    2.0879701723
 H    2.1581091696   -0.4751073261    2.9127613890
 H    3.3508509097    0.3716472648    0.2298260666
 H    4.1584844515   -0.4879992538    1.5425579543