22

 C   -0.2265272462    1.5836115277   -0.0906463251
 C    0.0594693332    0.0833501153   -0.0802565816
 C    0.6945394267   -0.6620626385   -1.2527859931
 C    2.2228032086   -0.8095656830   -0.9308843866
 N    2.5224614612   -0.1792613684    0.3422177120
 C    2.9900707133    1.1959412184    0.4254996908
 C    1.1736650081   -0.6057390751    0.7916933202
 C    1.2276784868   -1.7383923326   -0.3249030393
 C    1.0947030041   -3.2234670105   -0.2743412541
 H    0.5608893324    2.1667312567   -0.5704376631
 H   -1.1559978193    1.7836009551   -0.6358224489
 H   -0.3585764957    1.9677163724    0.9275158128
 H   -0.8705048727   -0.4405468338    0.1757811305
 H    0.3088683970   -0.7933705953   -2.2575963522
 H    2.9655757279   -0.9924940942   -1.6993078695
 H    2.4977958027    1.9044403980   -0.2544400631
 H    2.8596538898    1.5569462333    1.4510321869
 H    4.0635914316    1.2153126526    0.2037138865
 H    1.0366680979   -0.7331220372    1.8663858142
 H    0.1007670255   -3.5300691014    0.0720965123
 H    1.2443995874   -3.6574058358   -1.2690779004
 H    1.8362905898   -3.6681833837    0.3987818407