14

 O   -0.3231313809    1.3811400538    0.0032026343
 C   -0.1040634258    0.0203450021   -0.0235792427
 C   -0.3121744671   -0.8786054195    1.1859674695
 C   -1.1905115282   -1.0817751886   -0.0190485256
 O   -2.5553980054   -0.9643888858    0.0904911388
 C   -0.4242336203   -1.7966562939   -1.1113074104
 O   -0.2910452880   -0.9096529195   -2.2342105736
 C    0.6060864306   -0.7391527884   -1.1232030206
 H    0.3019460501    1.7854845408    0.6139258367
 H    0.4248853238   -1.6168751651    1.4910730542
 H   -0.8272259036   -0.3828585018    2.0041236225
 H   -2.8812815612   -0.5714877625   -0.7283858047
 H   -0.3051618296   -2.8582078833   -1.2935916420
 H    1.6657228056   -0.8442433784   -1.3259133363