19

 C   -0.0248189863    1.5709189186    0.0009581541
 C    0.0295300716    0.0728654914    0.0988146481
 C    0.9048624652   -0.7328159019   -0.9229244120
 C    1.8069058774   -1.2568017241    0.2522584789
 C    0.7277924771   -0.7718823514    1.2012451388
 O    0.8260500344   -0.3818266991    2.5604248658
 C   -0.5482590969   -0.8134022165    2.8030298596
 C   -0.6651606265   -1.3926400515    1.3726371359
 O   -1.2650502867   -0.5380753311    0.3820007696
 H    0.9738106194    1.9861341308   -0.1674834312
 H   -0.6653549862    1.8748964535   -0.8347084391
 H   -0.4306818860    2.0036795359    0.9196604835
 H    0.3311194461   -1.5141280548   -1.4236612282
 H    1.4214936879   -0.1295157142   -1.6715108539
 H    2.0676234018   -2.3177954043    0.2727025362
 H    2.7230726049   -0.6660293574    0.3477002755
 H   -0.5887379522   -1.5437640578    3.6184765748
 H   -1.2210207168    0.0249395370    3.0095074712
 H   -0.9372884982   -2.4444615128    1.2633708224