22

 C    0.0351170025    1.6222026535   -0.0590896359
 C   -0.0094427970    0.1037703986   -0.2490586444
 C   -1.3660034031   -0.5037496540    0.1218236340
 C   -1.4099688090   -2.0204300074   -0.0564132891
 C   -2.7522550220   -2.6475448748    0.2690579886
 O   -3.7404477740   -1.9917897175    0.5341324136
 C   -2.8185698084   -4.1451811608    0.2489053730
 C   -3.4739910843   -4.7922860662    1.4324784330
 N   -4.1493952441   -4.7607635916    0.1436623201
 H    1.0125757056    2.0307041099   -0.3336005957
 H   -0.7203321807    2.1203629297   -0.6766876146
 H   -0.1600172976    1.8958387114    0.9836769762
 H    0.2266554961   -0.1424186742   -1.2931474550
 H    0.7786382242   -0.3641718724    0.3563973306
 H   -1.6129445538   -0.2575897804    1.1615618991
 H   -2.1590029866   -0.0506383886   -0.4837611313
 H   -1.1633427426   -2.3018468141   -1.0916954774
 H   -0.6453763742   -2.5191589171    0.5571404710
 H   -2.0150344090   -4.6695333755   -0.2601484203
 H   -3.1230770976   -5.7680750429    1.7558568844
 H   -3.8226450919   -4.1292656945    2.2194140412
 H   -4.8215254426   -3.9917593910    0.1535687388