17

 O    0.1047365935    1.1001746344    0.7495300993
 C   -0.1082196711    0.1505126358   -0.2845613974
 C   -1.4297862713   -0.4744297216   -0.2417143449
 C   -2.5110780523   -1.0000163385   -0.1602501593
 C   -3.8354026512   -1.6254951414   -0.0464014133
 O   -3.7653113319   -2.9920243375    0.3167498635
 C   -4.6970691981   -0.8493906153    0.9532459156
 C   -5.8112195688   -1.5015299204    1.6444086614
 O   -4.5514037073   -1.2853507399    2.3052411516
 H   -0.1039572853    0.6691129902    1.5850189359
 H    0.0176636435    0.6997578331   -1.2242142056
 H    0.6615406076   -0.6378493268   -0.2739487033
 H   -4.3293634440   -1.5978305660   -1.0260772600
 H   -3.5326767536   -2.9985512020    1.2559942463
 H   -4.7078982846    0.2311636097    0.8173310643
 H   -6.6357481617   -0.8990243000    2.0196419938
 H   -6.0358325734   -2.5405463539    1.4194118121