17

 C   -0.0666503954    1.5100154085   -0.1186500560
 C   -0.0146466585    0.0179131150    0.0747693034
 O    1.2524523093   -0.6220543166   -0.0740613960
 C    0.6522855309   -0.6258975861    1.2233018540
 C    1.3419498590    0.0713977236    2.3867361548
 C    1.1444954356   -0.8998665442    3.5263928777
 C    0.4945692274   -2.0169545278    3.1721052388
 C    0.1484290343   -1.9722809362    1.7349470148
 O   -0.4249689006   -2.8033437931    1.0703062761
 H    0.7905305282    2.0036763468    0.3456171736
 H   -0.0606358385    1.7513390189   -1.1865427932
 H   -0.9871815862    1.9199048701    0.3107231486
 H   -0.8336939370   -0.5516738676   -0.3673921924
 H    2.4049540261    0.2332357316    2.1726587817
 H    0.9145829534    1.0536022462    2.6218828538
 H    1.5031953035   -0.6789756766    4.5260871808
 H    0.2421095383   -2.8539640426    3.8098073796