15

 O   -0.0210965504    1.4869792500    0.0485406168
 C    1.1420543475    2.1776239098   -0.0758142868
 N    2.3222356737    1.7370485185   -0.2066845551
 C    2.4623776027    0.2901418648   -0.2550259979
 C    2.2424542138   -0.5150164250    1.0219089167
 C    0.7676737837   -0.6248201502    1.2199615696
 C    0.1104870743    0.0611585284    0.0406507043
 C    1.2640283672   -0.5302763023   -0.7788428398
 N    1.4854220039   -1.6062622752    0.3142441387
 H    0.9394430143    3.2464560555   -0.0577794469
 H    3.3997734420    0.0182521326   -0.7429673255
 H    2.9480006196   -0.7360032953    1.8140051206
 H    0.3185093519   -0.9387831946    2.1540604348
 H   -0.8719092512   -0.3422284210   -0.2026042125
 H    1.1546787571   -0.8141901962   -1.8215471569