16

 C    0.0047081308    1.4005835513    0.1288211019
 N    0.0677870574   -0.0458808061    0.0062137804
 C    0.3027787985   -0.7971306917    1.2235877259
 C   -0.0866745503   -0.6080051150   -1.2264377033
 O   -0.2692590630    0.0197431605   -2.2571775676
 C   -0.0270849752   -2.0652978081   -1.2927121459
 C    0.0083890597   -3.2572788290   -1.4958893555
 C    0.0132361758   -4.6803893044   -1.7322440840
 O    1.0103573900   -5.3632027611   -1.7436624671
 H    0.9502666464    1.7931354988    0.5219016231
 H   -0.1830086154    1.8232781299   -0.8568595250
 H   -0.8009210238    1.6905703269    0.8138979259
 H   -0.5047947050   -0.6258759965    1.9462708095
 H    0.3551260679   -1.8634947304    1.0045474903
 H    1.2477982519   -0.4893590388    1.6876419090
 H   -0.9934454557   -5.1106454562   -1.9052340877