21

 C   -0.1697426802    1.5635872247    0.0010437095
 C    0.0071504365    0.0461709047   -0.0213889763
 C    0.9767228353   -0.5455533828   -1.0823212113
 C    2.3738592815   -0.1060093391   -0.5711492415
 C    2.2103245163   -0.6142192004    0.8563035413
 C    1.3190669223   -1.8551712988    0.7774860230
 C    0.9660650131   -2.0470291037   -0.6942894901
 C    0.7299534848   -0.5345012979    1.1970378332
 O    0.2511535279   -0.3664454953    2.4904569687
 H    0.7818413897    2.0915386668    0.1197820938
 H   -0.6396807993    1.9229327657   -0.9202748583
 H   -0.8177401518    1.8588885045    0.8340912378
 H   -0.9814019183   -0.4199955231   -0.1248902861
 H    0.7471722482   -0.3128461628   -2.1225863685
 H    3.1834199759   -0.6066678617   -1.1138190893
 H    2.5417926202    0.9729574375   -0.6359519496
 H    2.9672437802   -0.5209503118    1.6241303892
 H    1.4226551386   -2.6661844447    1.4857964620
 H   -0.0147243149   -2.5115337313   -0.8418438518
 H    1.7122739037   -2.6310673943   -1.2434088897
 H    0.4408865705    0.5374155141    2.7642684939