13

 C   -0.0050957588    1.4454924480   -0.0014257501
 N    0.0125677475    0.0017136192   -0.0373052850
 C    0.0598344095   -0.8143659875   -1.1651429100
 C    0.0632342041   -2.0970586550   -0.7489556569
 N    0.0182553179   -2.0741766477    0.6418294834
 C   -0.0139730839   -0.7721990645    1.1209372937
 O   -0.0555913332   -0.3885666186    2.2763155460
 H    0.8992580404    1.8666220559   -0.4540609086
 H   -0.8814829698    1.8459293170   -0.5225036342
 H   -0.0486259334    1.7362723372    1.0496873020
 H    0.0860176282   -0.4047013799   -2.1603196464
 H    0.0928217895   -3.0146323111   -1.3097739626
 H    0.0095284619   -2.8653488831    1.2598046085