19

 C   -0.5316218342    1.6351879078   -0.2184303744
 C   -0.0132095618    0.1899723102   -0.1267488219
 C   -1.1416298066   -0.8321701215    0.1260157777
 C   -2.0808680734   -0.5450594263    1.2822524332
 O   -1.2648055174   -1.8190092412   -0.5610599431
 C    0.7648608706   -0.2043423640   -1.3812895538
 O    0.5978040202    0.3564338590   -2.4422742120
 C    1.7921153424   -1.3186491037   -1.2773669477
 O    2.4230821082   -1.5493313651   -2.5011100877
 H    0.2998582803    2.3227152935   -0.3903806415
 H   -1.2239951913    1.7424491504   -1.0563290057
 H   -1.0355510154    1.9352943985    0.7028989591
 H    0.6606355672    0.1031687040    0.7389212723
 H   -1.5361342197   -0.2079547074    2.1697464737
 H   -2.7758877826    0.2555879130    1.0064554004
 H   -2.6542205334   -1.4448256094    1.5081634151
 H    2.5235057450   -1.0317285895   -0.5012580913
 H    1.2754064937   -2.2183374413   -0.9104410565
 H    2.0108797481   -0.9253060372   -3.1192701858