17

 C   -0.0967480249    1.5514020608    0.0057191628
 C    1.4237302367    1.2503272890   -0.0062486612
 C    1.3312360057    0.1626969791    1.0875776897
 C    1.8295729921   -0.9586102106    0.1770601345
 C    0.8202858566   -2.1272072524    0.2684164998
 C   -0.5515113952   -1.3502327285    0.2738789859
 C    0.0489235580    0.0345126770    0.1986499932
 N    1.1930019141   -0.0236700994   -0.8511293364
 H   -0.4840125822    2.1230301930    0.8527040219
 H   -0.5303228235    1.8816398606   -0.9420245010
 H    2.2436640429    1.9348831617   -0.2274085230
 H    1.3757765734    0.2771079042    2.1766687671
 H    2.8835252401   -1.2154414698    0.0471380054
 H    0.9068470565   -2.7920650867   -0.5952125107
 H    0.9645991132   -2.7251499935    1.1730140562
 H   -1.1711912550   -1.5929944576   -0.5925449455
 H   -1.1341310985   -1.5201224368    1.1829200214