17

 O    0.0990491501    1.3663690156   -0.0307432079
 C    0.0098695786   -0.0148896509   -0.0468042244
 C    0.6183214192   -0.7008356322   -1.3032635987
 O    0.1007324241   -2.0364468479   -1.2717179110
 C   -0.7259991300   -2.1184092613   -0.0973860369
 C    0.1974687923   -2.1410367074    1.1413795128
 C    0.6738725047   -0.6873813154    1.1527873855
 O    1.3791704127   -0.1070950080    1.9401171702
 C   -1.3704967330   -0.7236886075   -0.0196518861
 H    0.6688466668    1.5853373526    0.7236132583
 H    0.2819157577   -0.1748258524   -2.2051475107
 H    1.7143791327   -0.7143282283   -1.2923683166
 H   -1.3871918493   -2.9771436199   -0.2023259993
 H   -0.3426210521   -2.3650846050    2.0681391675
 H    1.0260602091   -2.8472859251    1.0480835780
 H   -1.9323946691   -0.5411359656    0.8999718079
 H   -1.9868209145   -0.4871346016   -0.8891213486