18

 O   -0.2723376543    1.5410037855   -0.0227727044
 C   -0.2075239066    0.1551921242   -0.1223823956
 C   -0.3673994703   -0.7221320901    1.0740842584
 O   -1.2445833522   -0.0699340025    2.0002298992
 C   -2.3422335761   -0.1615661951    1.0432552204
 C   -1.4296817983   -0.7513125759   -0.0317425358
 C   -1.8597214742   -1.7740767834   -1.0200294167
 C   -2.4014728892   -1.3506183785   -2.3423485130
 N   -1.1072562065   -2.0430898329   -2.2558378094
 H   -0.4616579333    1.7318277372    0.9065464198
 H    0.5461762993   -0.1722243016   -0.8345402823
 H    0.3388751858   -1.4459628003    1.4658779183
 H   -3.1005054363   -0.8622316355    1.4075546253
 H   -2.7965421924    0.8128836788    0.8338672128
 H   -2.2737424758   -2.6799669195   -0.5788695539
 H   -3.1990439664   -1.9197884687   -2.8112063608
 H   -2.4054863707   -0.2862499022   -2.5622597005
 H   -0.3578063724   -1.3641855994   -2.3629114118