17

 C   -0.5663137971    1.4352304731    0.0077967542
 C   -0.0313026539    0.0156785735   -0.0145073344
 C    1.0469708995   -0.4642915576   -1.0294244240
 C    1.7979388440   -1.0033323455    0.1857461437
 C    2.1716485977    0.0876412267    1.1190442058
 C    2.5706400645    1.4006717201    0.6930744117
 C    2.9927680041    2.4812832494    0.3723663293
 N    0.7838021005   -0.4660666815    1.1722727433
 H    0.2283575354    2.1810596587   -0.0026491552
 H   -1.2084118011    1.6018174157   -0.8644199333
 H   -1.1738312130    1.5896438256    0.9058750440
 H   -0.8785972394   -0.6763660878   -0.0502981832
 H    0.6906407125   -1.2312735162   -1.7184784888
 H    1.5785184073    0.3070244435   -1.5935949138
 H    2.2214888491   -1.9982929528    0.2833190731
 H    2.7031561808   -0.2442265994    2.0087138441
 H    3.3449165691    3.4422571745    0.0888473734