13

 C    0.0085348305    1.3923053213   -0.0318682681
 O    0.0185281686   -0.0460270283   -0.0285470753
 C    0.5964553178   -0.6487671167   -1.0416707453
 N    0.6988479104   -1.9330793426   -1.2039030622
 C    1.3767756152   -1.9945746717   -2.4014492266
 N    1.6757407836   -0.8337890144   -2.9481037694
 O    1.1434896662    0.0863983110   -2.0199683388
 C    1.7394318751   -3.2155027025   -3.0255974385
 C    2.0432191743   -4.2535101644   -3.5482118975
 H    1.0288421658    1.7838817599   -0.0269622690
 H   -0.5265629256    1.7710350157   -0.9062937470
 H   -0.5105341207    1.6762488652    0.8821352830
 H    2.3121203586   -5.1714335425   -4.0108141753