19

 C   -0.3305555628    1.2986650758    0.5492514474
 C    0.0756036986   -0.1128657439    0.1920983490
 C    1.4601281090   -0.3948043300   -0.3674656286
 C    1.0959520956   -0.8564488418    1.0078379653
 O    1.7543130417   -0.1819573928    2.0607049435
 C    1.2607354903   -0.3698942814    3.3080726640
 C    2.0894422144    0.4013504239    4.3034755112
 N    0.2525245995   -1.1117669107    3.5166696100
 H    0.5127240586    1.8549070046    0.9674523318
 H   -0.6873356444    1.8402950771   -0.3331940077
 H   -1.1334105034    1.2978290212    1.2940135035
 H   -0.7290279115   -0.7325122132   -0.1949949078
 H    1.5854834010   -1.1367568050   -1.1482338179
 H    2.1427830014    0.4466196857   -0.4285829801
 H    0.9377734075   -1.9085399600    1.2130259325
 H    2.0766884685    1.4679026822    4.0587383202
 H    1.7118556496    0.2630243884    5.3176831698
 H    3.1323973674    0.0731714127    4.2601619316
 H    0.0368630989   -1.1446803830    4.5104842223