21

 C   -0.0891158405    1.5726554596    0.0635109317
 C   -0.1151118677    0.0440793585    0.1424002490
 C    0.8787719825   -0.5163702014    1.1707742275
 C    0.8277316286   -2.0249405776    1.2810093618
 O    1.0766951598   -2.7297447424    0.0870178515
 C    1.3880289437   -2.8307433792    2.4368319119
 C    1.0726882829   -2.1607495865    3.7655984461
 O   -0.3361440902   -2.0351581979    3.4168074667
 C   -0.1108529694   -2.7594395281    2.2043915927
 H    0.9062979572    1.9371264401   -0.2133427109
 H   -0.7995684100    1.9462044759   -0.6804560993
 H   -0.3490759622    2.0214731442    1.0283794602
 H   -1.1275681707   -0.2932859148    0.4004469936
 H    0.1123672654   -0.3688897311   -0.8491544991
 H    1.8984338671   -0.2129469694    0.9001654445
 H    0.6568976377   -0.0800262040    2.1493367982
 H    0.3259711621   -2.5894592519   -0.5000881553
 H    2.0867975336   -3.6374147622    2.2639914031
 H    1.1917543526   -2.8293259170    4.6256338049
 H    1.5377160964   -1.1927584557    3.9853147873
 H   -0.8439727789   -3.4966860391    1.8944933841