18

 O    0.1785381494    0.4239006861    0.8580288873
 C   -0.2716068525    0.2062934283   -0.4623258735
 C   -1.6060163171   -0.5221612374   -0.4997056296
 C   -1.7913793101   -1.7033614164   -1.4127461924
 C   -1.5971805731   -1.9242054734    0.0649996058
 N   -0.4377135311   -2.5119070466    0.7826219319
 C   -1.3537618426   -3.1800650395    1.7678137081
 C   -2.5519999514   -2.5102541342    1.0601881811
 O   -3.7345908432   -2.4703931340    1.2330123194
 H    0.2983669781   -0.4628155417    1.2299926933
 H   -0.3667189320    1.1895430345   -0.9346138792
 H    0.4673157528   -0.3631096268   -1.0496738132
 H   -2.4844693210    0.0679296169   -0.2548038161
 H   -2.7769183346   -1.9187537743   -1.8121739528
 H   -0.9642919365   -1.9703517019   -2.0645738436
 H    0.0628045884   -3.1922949993    0.2194187803
 H   -1.3710808900   -4.2739689339    1.7175100975
 H   -1.1848947136   -2.8701016165    2.8029310455