18

 C    0.3264421805    1.4515459436    0.0765103697
 C    1.1725182049    0.2025693661   -0.0863242393
 C   -0.3342222265    0.1242152908   -0.0872548539
 O   -1.0094072675   -0.3777928348    1.0281731459
 C   -1.1782461581   -1.7703658507    1.0122632365
 C   -0.0761119997   -2.6698502694    1.6254117118
 O   -1.0356595185   -3.2743502239    2.5176322774
 C   -2.0427308576   -2.3023633149    2.1645963096
 H    0.2834130844    1.8904743774    1.0666190319
 H    0.2720850470    2.1617779510   -0.7404515935
 H    1.7013050071    0.0442704429   -1.0199222051
 H    1.6878829076   -0.1572041234    0.7964657937
 H   -0.8292498976   -0.0942085353   -1.0344067711
 H   -1.5053543565   -2.1104895462    0.0209545509
 H    0.4039127135   -3.4087493192    0.9744244794
 H    0.6896570186   -2.0987314423    2.1665421312
 H   -2.1942589094   -1.5509979278    2.9505684401
 H   -2.9999210824   -2.7695365039    1.9102185048