25

 C   -0.1119927844    1.6080123409    0.0807387070
 C    0.0487781591    0.0813393747    0.0511572615
 C    0.8725853407   -0.3967979178    1.2552867125
 C   -1.3348127032   -0.5925663427   -0.0352585871
 C   -1.3735353278   -2.1201542426   -0.1632463646
 C   -0.5259936695   -2.6554416293   -1.3185908086
 C   -1.2178653190   -2.9634465773    1.1338838173
 O   -2.4708747063   -3.6357999326    0.9045363024
 C   -2.8021597215   -2.7284281557   -0.1637815074
 H    0.8620619502    2.1080276231    0.0955567969
 H   -0.6620065710    1.9698058304   -0.7943985746
 H   -0.6621090734    1.9275325334    0.9740959686
 H    0.6076394336   -0.1718336030   -0.8596982015
 H    0.3497868437   -0.1911117942    2.1970102435
 H    1.0787464557   -1.4707697058    1.2156948324
 H    1.8372824795    0.1199515558    1.2949497967
 H   -1.9239305043   -0.3009127463    0.8459129153
 H   -1.8649878395   -0.1720645288   -0.9019763448
 H    0.5409018464   -2.4653229469   -1.1642294669
 H   -0.6584485735   -3.7373711324   -1.4200487687
 H   -0.8156177262   -2.1894096938   -2.2675921333
 H   -0.3748208392   -3.6645528806    1.1692782002
 H   -1.2360742943   -2.3796698083    2.0639814328
 H   -3.5941561474   -2.0240436746    0.1289481383
 H   -3.1121431284   -3.2554262955   -1.0747206579