20

 C    0.1418707195    1.5629865098   -0.3665395994
 O   -0.0560385395    0.1883207498   -0.1337143259
 C    0.5716883830   -0.6782564071   -1.0740296368
 C    2.0801551963   -0.7856414894   -0.8359641094
 C   -0.1245602364   -2.0348481666   -0.9390356848
 C   -1.5987680615   -1.9721651534   -1.2609911307
 C   -2.1165064072   -2.2939363338   -2.5977402618
 O   -2.2483145941   -3.2201817993   -1.5186229929
 H    1.1901717471    1.8696777212   -0.2399303583
 H   -0.1816681284    1.8548775129   -1.3782151416
 H   -0.4647304963    2.1027988127    0.3650880341
 H    0.3951964569   -0.2856783308   -2.0909057825
 H    2.5369822216   -1.4567749448   -1.5701218446
 H    2.5728435251    0.1864472172   -0.9261131163
 H    2.2788505440   -1.1797726250    0.1656741360
 H    0.3564653538   -2.7640152333   -1.5996474895
 H    0.0072306689   -2.3911530985    0.0902289647
 H   -2.1777374676   -1.2870706055   -0.6439016136
 H   -3.0455900094   -1.8450121046   -2.9468715549
 H   -1.4228946858   -2.5903569914   -3.3846789819