16

 C    0.0730675680    1.5330772236    0.0091582105
 C   -0.0199426935   -0.0037755226    0.0031841932
 C   -1.3925619229   -0.4941273290    0.0129636677
 C   -2.5323486409   -0.8885588933    0.0210432233
 C   -3.8626231642   -1.3646101304    0.0301782111
 C   -5.0426078324   -0.6461547541    0.0419003932
 N   -6.0034435274   -1.5940627895    0.0467859031
 N   -5.4755792400   -2.8353554142    0.0387892292
 N   -4.1861988709   -2.7046975902    0.0287898796
 H    1.1200857035    1.8494892576    0.0014122690
 H   -0.4213512901    1.9562862484   -0.8694033124
 H   -0.4059068014    1.9484907551    0.8999120232
 H    0.4988380808   -0.4003428325   -0.8792398255
 H    0.5140924381   -0.4080802571    0.8729047944
 H   -5.2513684661    0.4094731641    0.0468436037
 H   -7.0048660706   -1.4833630960    0.0552433568