17

 C   -0.0149270205    1.5165081366    0.0451146076
 C    0.0251555435   -0.0015963564   -0.0054254445
 C    0.7367060511   -0.5382390276   -1.2495547122
 O    0.8376434710   -1.9526549313   -1.2157334654
 C    1.5129845635   -2.3861448229   -0.0462088674
 C    0.8040155016   -1.8681504296    1.1998650055
 O    0.7039397039   -0.4539750224    1.1647041913
 H    0.9988365194    1.9285431225    0.0267921786
 H   -0.5710792001    1.9177815658   -0.8076251037
 H   -0.5014751124    1.8497905558    0.9652949546
 H   -1.0011191830   -0.4088666813   -0.0008517708
 H    0.1784838210   -0.2857799154   -2.1563436933
 H    1.7402397370   -0.0837450773   -1.3149851572
 H    1.5195784536   -3.4802659994   -0.0698570422
 H    2.5552550249   -2.0258865835   -0.0519328233
 H   -0.1993226278   -2.3207920416    1.2645638598
 H    1.3625450133   -2.1251692721    2.1055175226