18

 C   -0.2324809587    1.4637902957    0.2927830187
 C   -0.0490092354   -0.0143706360    0.0121388854
 O   -1.3492479821   -0.6399491076    0.0996943952
 C   -1.3860118150   -1.9570288464   -0.1266690660
 O   -0.4333587206   -2.6352935160   -0.4147600082
 C   -2.8321862261   -2.5057766982   -0.0284411552
 N   -2.9329364815   -3.9270903654   -0.3464083745
 C   -3.3961126727   -2.2239989080    1.2900606940
 C   -3.8397985393   -2.0211517496    2.3872668520
 H    0.7343280027    1.9729830370    0.2394626929
 H   -0.9037082050    1.9203799897   -0.4398614224
 H   -0.6521359455    1.6218814701    1.2899491179
 H    0.3619300237   -0.1981068512   -0.9853780433
 H    0.6178956615   -0.4918243287    0.7364897881
 H   -3.4096919500   -1.9424213974   -0.7761693748
 H   -2.3543100777   -4.1080932216   -1.1634542036
 H   -2.5026278153   -4.4571988459    0.4067140681
 H   -4.2429673730   -1.8335559406    3.3516821457