19

 C    0.0573960458    1.5001059209    0.1306832337
 O    1.4863072979    1.4365771577   -0.1596273614
 C    1.2950640216    0.1329971573   -0.7824642498
 C    2.1176229500   -1.1180268556   -0.4337919928
 C    1.0376715138   -1.9566076930    0.3649810446
 C    0.4685311947   -0.8216392529    1.2377516391
 C   -0.0297256108   -0.0243429285    0.0069832058
 C   -0.8654330953   -1.0705741162   -0.6865501148
 C   -0.1860168031   -2.2183678614   -0.5223395034
 H   -0.1421495272    1.9485777198    1.1090288795
 H   -0.4789913081    2.0569054693   -0.6499196481
 H    1.1615043545    0.2666101267   -1.8622803717
 H    2.4943351226   -1.6306276613   -1.3211730628
 H    2.9645259990   -0.8847019215    0.2171286762
 H    1.4456674267   -2.8340986669    0.8678063435
 H   -0.3542757189   -1.1376019515    1.8834163885
 H    1.2251196052   -0.2874034229    1.8183473026
 H   -1.7259323634   -0.8989108658   -1.3205440512
 H   -0.4072753450   -3.1708594843   -0.9881041376