16

 C    0.5320025253    0.1371933150   -1.4479036695
 C   -0.0075876642   -0.0821327212   -0.0216609904
 C   -1.4648093818   -0.4575106690   -0.0144070614
 C   -1.8489185777   -1.9064008700    0.1724155691
 O   -3.2265274086   -2.1504695084    0.0869628578
 N   -2.4425903024    0.3472325303   -0.1654213480
 O   -2.0397983403    1.6787893305   -0.3328600727
 H    1.5938382314    0.3980649335   -1.4175058285
 H    0.4239945485   -0.7660505307   -2.0564375294
 H   -0.0097159583    0.9484752229   -1.9388530351
 H    0.5661254212   -0.8716712094    0.4761620955
 H    0.1198443903    0.8364097046    0.5592255000
 H   -1.3103328880   -2.5051155065   -0.5817406261
 H   -1.4574760857   -2.2341829815    1.1515663787
 H   -3.6426251707   -1.2836461501   -0.0215030207
 H   -2.8807582090    2.1415862600   -0.4104255994