21

 C   -1.5101429108   -0.5321508433    0.0537973890
 C   -0.0625823812   -0.0304770737    0.0050629673
 C    0.7226098638   -0.5580396244   -1.2119486626
 C    0.1720958042    0.0511013367   -2.4194723536
 C   -0.3238650919    0.5917374533   -3.3739000025
 C    2.2999930542   -0.6599803381   -1.1373118711
 C    2.1355406974   -1.8760100062   -0.1789147606
 C    1.0960089866   -2.0937822506   -1.3151220246
 C    2.2296118602   -1.6892631245   -2.3025666374
 H   -2.0489562795   -0.2650684894   -0.8597684919
 H   -1.5488102254   -1.6215959717    0.1601550207
 H   -2.0445780119   -0.0954923930    0.9029702185
 H   -0.0570101390    1.0644806386   -0.0458026114
 H    0.4454393933   -0.2946212803    0.9353458717
 H   -0.7506366127    1.0581224167   -4.2271557616
 H    2.9882457460    0.1810013342   -1.0361951330
 H    2.9718658638   -2.5789427481   -0.1703890113
 H    1.7729638133   -1.7019382719    0.8331826312
 H    0.3900867734   -2.9187396596   -1.4231088034
 H    1.9294341520   -1.3153468611   -3.2809424435
 H    3.0680452041   -2.3860258435   -2.3723300100