16

 N    0.0156850991    1.1972614365   -0.3207236016
 C    0.0090488273   -0.0112006059    0.0157063551
 O    1.0027931547   -0.8204854395    0.5218068583
 C    0.1340912399   -2.0008567806    0.4625585747
 C   -1.0345494502   -1.1190662898   -0.0217540619
 C   -2.3694811072   -0.9292288304    0.7396897627
 C   -3.0319724299   -0.8544718345   -0.6576778573
 N   -1.7846813135   -1.4122689280   -1.2462251114
 H    0.9309533549    1.6272794095   -0.1766712500
 H    0.4991738751   -2.7227606577   -0.2720168013
 H    0.0308149282   -2.4625923428    1.4477448724
 H   -2.6533979297   -1.8161514685    1.3100046543
 H   -2.4400103038   -0.0444483600    1.3716665074
 H   -3.9180303347   -1.4731635730   -0.8289830340
 H   -3.2480415604    0.1757620609   -0.9613233003
 H   -1.4431330799   -0.9332277564   -2.0734406571