18

 C   -0.0585617145    1.5608206521   -0.0469110675
 C    0.0100181659    0.0246789255    0.0106784922
 C    0.7353325212   -0.4928229747    1.2267722469
 C    2.1101774566   -0.7317439731    1.2448084795
 N    2.7770365668   -1.1605693528    2.3121020456
 C    2.0413313121   -1.3590962574    3.4185724608
 N    2.7122773731   -1.7421720932    4.5463783380
 N    0.7125502884   -1.1940254304    3.5289901571
 C    0.0914041749   -0.7644505384    2.4348050706
 H    0.9451758415    1.9974335470   -0.0647129872
 H   -0.5914721402    1.8964667237   -0.9422685403
 H   -0.5779743505    1.9630754250    0.8288115327
 H   -1.0079419443   -0.3827787931   -0.0065043701
 H    0.5050833498   -0.3485054652   -0.8938485623
 H    2.7032567703   -0.5769207559    0.3432745927
 H    3.6402775629   -2.1078536744    4.4143681778
 H    2.1564331338   -2.1320272023    5.2889287991
 H   -0.9879837577   -0.6368111525    2.5191384344