19

 C   -0.5167228353    1.3415323386    0.0354810953
 C    0.0747489047   -0.0521211318   -0.0116827010
 O    1.0986628591   -0.1223708324   -0.9942121102
 C    1.7598376283   -1.3754238473   -0.8254669797
 C    1.5931784200   -1.7678665424    0.6671691281
 C    0.8219727158   -0.5503379884    1.2657857296
 N    1.6716889165    0.5273209896    1.7774143302
 C   -0.1115454005   -0.9634316759    2.3190299267
 N   -0.8551466763   -1.3072985490    3.1340207107
 H    0.2431958783    2.0857911556    0.2771462057
 H   -0.9601395523    1.5854950396   -0.9332969450
 H   -1.2988707549    1.3874753352    0.7982371116
 H   -0.7168722409   -0.7859557009   -0.2374575364
 H    1.3083465918   -2.1339610596   -1.4792361226
 H    2.8023743636   -1.2435106145   -1.1262394718
 H    1.0137004311   -2.6882325543    0.7709511752
 H    2.5444845714   -1.9121455262    1.1837557148
 H    2.2863472167    0.1741054647    2.5041808393
 H    2.2573428729    0.8581615595    1.0155635696