18

 C   -0.0268569336    1.4449609215    0.2162219103
 C    1.2665158834    0.7720552381   -0.1281279337
 C    1.8608666640    0.1273427092    1.1307959471
 C    0.5738764339   -0.7441582980    1.2565956173
 C    0.7303211621   -2.2862619439    1.1885059829
 N    0.0533321919   -2.8103499533    2.3843659633
 C   -0.3826766835   -1.7904859625    2.9963288032
 O   -0.1694471422   -0.5537029873    2.4930598745
 C   -0.0205704135   -0.0494009750    0.0377375840
 H   -0.1799359770    1.8743250555    1.2024813220
 H   -0.5020023366    1.9929501082   -0.5909812754
 H    1.8097956101    0.9849412290   -1.0393540302
 H    2.7487425754   -0.4829875747    0.9471419116
 H    2.0562329726    0.8034238590    1.9685840326
 H    0.2697301778   -2.7053227830    0.2866601337
 H    1.7812751697   -2.5964362524    1.1898756849
 H   -0.9364493355   -1.8074424667    3.9289872779
 H   -0.6277214490   -0.5439180037   -0.7119995160