18

 C   -0.1702834738    1.5190381854   -0.0437863911
 C    0.0001910875    0.0381184316   -0.0009259584
 C    0.0341127209   -1.0330213489   -1.0534764092
 C    1.3027679761   -1.6521953115   -0.4786201432
 C    0.9163551363   -0.9473824401    0.8515054731
 C   -0.3619756638   -1.6911791168    1.3146416297
 C   -1.0335019384   -1.0887835721    0.0788795253
 C   -2.4222968299   -1.0047539138   -0.2153467639
 N   -3.5552806240   -0.9279812917   -0.4448630415
 H    0.7485887540    2.0144826725   -0.3767065820
 H   -0.9707657745    1.7922700503   -0.7389994970
 H   -0.4311777286    1.9218961584    0.9408779368
 H   -0.2900967554   -0.9635255034   -2.0841223034
 H    1.4046893707   -2.7423751473   -0.4613340026
 H    2.1906708457   -1.2042873968   -0.9326657934
 H    1.6748594595   -0.6484510811    1.5709576849
 H   -0.3111399034   -2.7815809179    1.4003806814
 H   -0.7806277589   -1.2650218869    2.2292132044