17

 C   -0.0483986999    1.5264366191   -0.0365067072
 O    0.2318447607    0.1210599082    0.0367378020
 C    0.4317201111   -0.4895567194   -1.1476428607
 O    0.3835128546    0.0843457040   -2.2092769794
 C    0.7166935825   -1.9448504936   -0.9890350427
 C    0.2207793777   -2.8442384214   -2.1394929024
 C    1.6607259119   -2.5520974061   -2.0466420986
 C    0.7580291797   -2.5773842834    0.3603934592
 O    0.9856542240   -3.7533004296    0.5288863168
 H    0.7815939461    2.0587930076   -0.5068227683
 H   -0.9564487987    1.7064674040   -0.6166333845
 H   -0.1800610819    1.8544481331    0.9943194867
 H   -0.1257569988   -3.8200511022   -1.8204556421
 H   -0.3602509190   -2.3343893794   -2.8978406261
 H    2.0870152652   -1.8378593507   -2.7400219172
 H    2.3166555890   -3.3245121680   -1.6629593385
 H    0.5655974357   -1.8988876522    1.2114701131