17

 C    0.2195265709    1.5702328667   -0.1867073950
 C    0.1474289947    0.0841452880    0.0996107448
 O    0.4100057233   -0.3976256102    1.1733492131
 C   -0.2252291085   -0.8214547512   -1.0741432600
 N   -0.7176001119   -2.1559266176   -0.7274748867
 C   -1.6650460736   -2.1542514594   -1.8545428020
 C   -1.5272220370   -0.5998340877   -1.9289822216
 C   -2.5935843573    0.1388383464   -1.2737437980
 N   -3.4407290417    0.7432076595   -0.7695014559
 H    0.7506131761    2.0740575304    0.6217252471
 H    0.7140281809    1.7695009595   -1.1438628127
 H   -0.7961428528    1.9768641727   -0.2538418736
 H    0.6374717019   -0.8093084557   -1.7657264539
 H   -0.0360380005   -2.9031748181   -0.6866574358
 H   -1.2987040808   -2.6159006198   -2.7822890822
 H   -2.6568669864   -2.5489888354   -1.6199029590
 H   -1.3661445772   -0.1881387481   -2.9259776286