20

 C    0.5970224064    1.4008130459   -0.7618404803
 O    0.7403028952    0.0376251905   -1.0840132452
 C    0.1607448840   -0.8163867740   -0.1224584991
 C    0.3917897707   -2.2523301688   -0.4898370663
 C   -0.2054232656   -3.4835277599    0.2052222810
 C    0.7804310667   -4.0209742798   -0.8311603692
 C    0.4425634269   -2.9360505801   -1.8969930223
 C    1.9290096842   -2.6125973134   -2.0001412590
 N    1.8116485872   -2.9072582999   -0.5038669134
 H   -0.4628805254    1.6922257573   -0.6876734822
 H    1.0883327726    1.6484930078    0.1920470449
 H    1.0667940502    1.9770006626   -1.5622969923
 H    0.5886673962   -0.6291288540    0.8773960225
 H   -0.9266744297   -0.6343671331   -0.0502609635
 H    0.0716504125   -3.6264062252    1.2536981482
 H   -1.2668115045   -3.6810488821    0.0328952319
 H    1.1221636014   -5.0414429056   -1.0114444632
 H   -0.3453136838   -2.9595889824   -2.6578072157
 H    2.5656064239   -3.3346535389   -2.5232393565
 H    2.2229609709   -1.5869791268   -2.2237396205