23

 C    0.1326329579    1.5880418915    0.0154628814
 C    0.0361730697    0.0608433845    0.0032418398
 C    0.6313591076   -0.5583812316   -1.2866024871
 C    1.0350258331   -2.0262142029   -1.0697283260
 C    0.1315587532   -2.7115454099    0.0007990658
 C    1.0544076452   -2.0433161785    1.0472801225
 O    1.2103517964   -2.7659090624    2.2449671918
 C    2.1813222377   -2.0932561353   -0.0232715466
 C    0.6457350594   -0.5784930016    1.2780047502
 H    1.1793677499    1.9142847508    0.0089099939
 H   -0.3566161848    2.0234943473   -0.8625916202
 H   -0.3430082655    2.0108067809    0.9071817149
 H   -1.0292843081   -0.1977400414    0.0105481933
 H   -0.1035475888   -0.4709640544   -2.0957759462
 H    1.5150632093    0.0082569722   -1.6101076254
 H    1.1863292211   -2.5522544776   -2.0141092078
 H   -0.9392716023   -2.4934626122    0.0231278038
 H    0.2818282671   -3.7937789224    0.0109878839
 H    1.7458415829   -2.2384733328    2.8479381103
 H    2.6738322444   -3.0690135281   -0.0151135545
 H    2.9316654770   -1.2953521628   -0.0281846836
 H    1.5294432903   -0.0118932186    1.6073231393
 H   -0.0840290429   -0.5353466349    2.0952174265