19

 C   -0.0002327050    1.4876396852   -0.0469318049
 C    0.1212403288   -0.0122951606    0.0685533641
 O    0.6445043290   -0.5640952958   -1.1222490933
 C    1.2286010814   -1.8114015106   -0.7789470779
 C    2.4458443048   -2.0669899186   -1.6508800500
 C    1.5355941431   -1.6407061916    0.7567296664
 O    1.0570651146   -0.3589087095    1.0781439380
 C    0.8680775351   -2.7446218119    1.5624722637
 O   -0.1062318148   -2.5992021712    2.2500452948
 H    0.9765705885    1.9191770473   -0.2775350182
 H   -0.7051050828    1.7439246186   -0.8415706575
 H   -0.3653779340    1.9025544231    0.8954923249
 H   -0.8495493328   -0.4824184432    0.3021008454
 H    0.4905083489   -2.6166501620   -0.9230214480
 H    3.1945751293   -1.2844991621   -1.4970382955
 H    2.8936031014   -3.0370530629   -1.4125635609
 H    2.1605810292   -2.0721767044   -2.7063498873
 H    2.6165196781   -1.6768144553    0.9468071853
 H    1.3577766575   -3.7413619545    1.4427526607