15

 O    0.8119408711    1.5702026667   -0.2232860738
 C    0.1566886951    0.3751302879    0.1006312887
 C    0.2704389845   -0.6250417794   -1.0572789421
 O    0.8862518733   -0.3503069562   -2.0543327377
 C    0.6787996589   -0.2762508100    1.3071302093
 C    1.1132072164   -0.8394323638    2.2773466315
 C    1.6446146783   -1.5016358220    3.4699782157
 C    2.1818393890   -2.8375795538    3.2058269808
 C    2.6225851342   -3.9348416174    2.9999696717
 H    1.2583903573    1.3959711486   -1.0681107675
 H   -0.9211833886    0.5690437963    0.2437433325
 H   -0.2296892394   -1.6005843088   -0.9101032727
 H    2.4307923810   -0.8716648106    3.9084094474
 H    0.8582891962   -1.5684381091    4.2342845237
 H    3.0148028427   -4.9041997882    2.8149492224