19

 O   -0.1135945242    1.4651795137    0.0721721799
 C    0.0564265865    0.0466860717    0.0469730943
 C   -1.3385754562   -0.5514847996   -0.0604700970
 O   -2.1518977474   -0.0202865262    0.9761758820
 C   -2.0813853823   -0.5561677528   -1.4440627525
 C   -2.3103839588   -2.0674627571   -1.3013553548
 C   -0.9702443946   -2.7690995893   -1.2005019373
 C   -1.4956404735   -2.0716183541    0.0046398245
 O   -1.6500946191   -2.7248496656    1.2046626844
 H    0.7121601681    1.8712814265    0.3495473329
 H    0.6792149061   -0.2631860515   -0.8024831048
 H    0.5267149739   -0.3112898802    0.9741575341
 H   -1.8942617201    0.9074069938    1.0603392382
 H   -2.9946027929    0.0371666983   -1.3810920670
 H   -1.4970628814   -0.2396187001   -2.3152419224
 H   -3.2116097161   -2.6045034557   -1.5680655551
 H   -1.0344108458   -3.8502730612   -1.1233540760
 H   -0.1030785817   -2.4142645393   -1.7553307517
 H   -2.1683490905   -2.1247320813    1.7587578984