17

 C   -0.0169708670    1.4899285644   -0.1205649812
 C    1.3628083764    2.1071141356   -0.0282436238
 C    2.1668224841    2.0094818444    1.0341226785
 C    1.8457513575    1.3453326116    2.3229214288
 O    0.4761207879    1.3195258887    2.7547265341
 C    1.0762228916    0.0747082076    2.4369580985
 C    0.5844557614   -0.6718599599    1.2342024487
 O   -0.8197207112   -0.6674687077    0.9548926126
 C    0.0571310020   -0.0232719512    0.0251637533
 H   -0.6571834442    1.8757134805    0.6749413237
 H   -0.4824618349    1.7404381951   -1.0778274716
 H    1.7290550200    2.6459207704   -0.8980502283
 H    3.1518449098    2.4669773707    0.9948361484
 H    2.5447529010    1.5582581240    3.1318052452
 H    1.2803635931   -0.5545468702    3.3051377196
 H    1.0571179527   -1.6499947239    1.1244349737
 H    0.1792999700   -0.5714456302   -0.9100098401