21

 C    0.7076228915    1.2752079661    0.0286793104
 C    0.2223173122   -0.1620234132   -0.0434129952
 O    0.8109964243   -0.7770788433   -1.1837651582
 C    0.4132595120   -2.1101138845   -1.3814215557
 C    1.0706254386   -2.6193512342   -2.6805218215
 C    2.2707855831   -3.4166210076   -2.1960776621
 C    3.1982688860   -2.7369498193   -1.2010605025
 C    2.0550615071   -3.5912136742   -0.7222521306
 O    0.8542408445   -2.9617671058   -0.3342787699
 H    1.7959902910    1.3098162106    0.1326738902
 H    0.4334191593    1.8227971529   -0.8776532311
 H    0.2624531392    1.7827550803    0.8897673568
 H    0.4952234775   -0.7169323849    0.8629339780
 H   -0.8761098272   -0.1982052068   -0.1332945802
 H   -0.6849087417   -2.1651996654   -1.3778403627
 H    0.3794920051   -3.2742443174   -3.2198727140
 H    1.3186782438   -1.7725587857   -3.3240723473
 H    2.6521226646   -4.2165347230   -2.8191818210
 H    4.1980025790   -3.1473208905   -1.1019776157
 H    3.1195777147   -1.6640060679   -1.0740888852
 H    2.2203378156   -4.5137151562   -0.1789448424