13

 C   -0.0425644465    1.4321804763   -0.0299693011
 N   -0.1136899562   -0.0209949336    0.0444083265
 C    0.6027305559   -0.6309010593    1.0565849089
 C    1.2791114084   -0.1464527905    2.1598539902
 N    1.7531839481   -1.2056151267    2.8787504073
 N    1.4262387948   -2.3145605275    2.2984047444
 N    0.7168992859   -1.9768068179    1.1826377644
 H    0.9805003189    1.8138755444   -0.1632382025
 H   -0.6586187129    1.7736473106   -0.8643107939
 H   -0.4510711797    1.8611824118    0.8896700451
 H   -0.0087429812   -0.4690947790   -0.8555129087
 H    1.4484521632    0.8715918988    2.4662917507
 H    0.3270391511   -2.7024378174    0.6037469588