17

 C    0.0238870521    1.4167972975    0.0191420836
 N    0.0119587711   -0.0345659695    0.0009696094
 C    0.0167913008   -0.8186368555   -1.1216604231
 C    0.0360008872   -0.2354716347   -2.4952062950
 C    0.0012898261   -2.1445860289   -0.7191244434
 C   -0.0134761574   -2.1714948436    0.6885770695
 C   -0.0066425922   -0.8549027539    1.1211257187
 C   -0.0156446485   -0.3326873453    2.4298894874
 N   -0.0229394506    0.1137749676    3.5013202145
 H    0.9221266396    1.8055509232   -0.4703949466
 H   -0.8566201151    1.8203268538   -0.4902233249
 H    0.0152023562    1.7578190417    1.0546473493
 H    0.9258446441    0.3812756180   -2.6709855704
 H    0.0367740754   -1.0387540406   -3.2345494537
 H   -0.8393231447    0.3963875853   -2.6892798656
 H    0.0008688411   -2.9955157480   -1.3828828736
 H   -0.0274842950   -3.0361802570    1.3327731840