15

 C   -0.0155101006    1.4972178576   -0.0260688723
 C   -0.0064029339    0.0058263527    0.0485410401
 N   -0.0354852843   -0.7441593602   -1.0577593311
 N   -0.0178083889   -2.0487939696   -0.6619693398
 C    0.0226401550   -2.1577192941    0.6895716027
 C    0.0304565114   -0.8600683775    1.1597602742
 O    0.0705324615   -0.8384283639    2.5220575148
 C    0.0876438209   -2.1577291215    2.8931434804
 C    0.0603790037   -3.0177675434    1.8329631946
 H    0.8793762743    1.9262143903    0.4378531077
 H   -0.0498203521    1.8112042756   -1.0710457006
 H   -0.8832468316    1.9181887791    0.4934188109
 H   -0.0353048269   -2.7640658887   -1.3660379519
 H    0.1198153955   -2.3322639739    3.9566829201
 H    0.0670759460   -4.0940831123    1.8900790998