20

 C   -0.0166501569    1.5131091695    0.1378364816
 C    0.0414018605    0.0212806779    0.0260402893
 C    0.0521087017   -0.7365137147   -1.0824282327
 C    0.0089462973   -0.2996221370   -2.5137503315
 C    0.0572778624   -2.2125667681   -0.7309383916
 C    0.4788912270   -2.2291142951    0.7554128523
 O    1.8824428286   -2.4170004269    0.8974155349
 C    0.0379146645   -0.8420165288    1.2738428624
 H    0.8312222673    1.8982952279    0.7189933751
 H   -0.0110071972    2.0109975006   -0.8347895084
 H   -0.9226457409    1.8310541632    0.6706960341
 H    0.0064181370    0.7874057713   -2.6246097407
 H    0.8677406921   -0.6937673348   -3.0724265223
 H   -0.8871418195   -0.6887067157   -3.0152449579
 H   -0.9421173672   -2.6495242239   -0.8743498343
 H    0.7505456593   -2.8097090494   -1.3351366089
 H    0.0283401112   -3.0528444124    1.3141970787
 H    2.3125492158   -1.7025904138    0.4131699186
 H    0.7177647955   -0.4896044345    2.0586131401
 H   -0.9671751985   -0.8760168653    1.7198565112