18

 C    0.3036906891    0.9377085353   -0.9209602489
 C   -0.1070884140    0.1343333223    0.2941440401
 O    0.5157071738    0.1495758740    1.3354820685
 C   -1.3282666230   -0.7048362318    0.1869407658
 C   -1.9651973547   -1.5427025968    1.2926395389
 C   -2.8165597631   -2.1873825927    0.1667462269
 C   -3.6319176332   -0.9864221316   -0.3487350646
 N   -2.3669625959   -0.3677222564   -0.8727327413
 C   -1.7297423465   -1.6978979767   -0.8638147742
 H    1.2238081097    1.4804241039   -0.7017320654
 H    0.4560880680    0.2826230604   -1.7858610663
 H   -0.4973176332    1.6298323753   -1.1965897677
 H   -1.2281510791   -2.2321674431    1.7077712481
 H   -2.4958375623   -1.0322695385    2.1022977776
 H   -3.2354876030   -3.1856585351    0.2716134804
 H   -4.2707088600   -1.2210910736   -1.2035130176
 H   -4.1827386388   -0.3813055093    0.3799098303
 H   -1.1860286237   -2.1335017757   -1.6924019807