14

 O   -0.0393203356    0.0407318885    0.0067480971
 C   -0.0459351386    1.2314609154   -0.0327207582
 C   -1.1031546844    2.3615087989    0.0883062328
 C    0.0023854898    3.1282845248    0.8701726677
 C    1.0282105071    2.3579082602   -0.0054627334
 O    1.1178235537    2.9704964542   -1.3067828253
 C   -0.0555319422    3.2267986002   -1.9750233995
 O   -0.0426418254    3.6466033411   -3.0983630809
 N   -1.1924744372    2.9795197006   -1.2357118551
 H   -2.0903662766    2.1862444010    0.5115501690
 H    0.0037280017    4.2143703519    0.7700157817
 H    0.0537259204    2.8236972209    1.9176800774
 H    2.0458758308    2.1664775549    0.3283637337
 H   -2.0500512236    2.9404056475   -1.7621604168