19

 C   -0.0594056849    1.4966448935   -0.0103673568
 C   -0.0258074943   -0.0355344280   -0.0023924116
 N   -1.3438775280   -0.6638913187    0.0416483597
 C   -2.1413497002   -0.7024425095   -1.1715051595
 C   -1.9469950029   -0.7665566200    1.2569511527
 N   -1.4261730217   -0.5224821183    2.4288813670
 C   -2.4469598131   -0.8516026495    3.3164043569
 C   -3.5352859450   -1.2643170757    2.6381241274
 O   -3.2278428456   -1.2100801081    1.2871130668
 H    0.9592253683    1.8951277214   -0.0530567174
 H   -0.6070661659    1.8842171832   -0.8755168750
 H   -0.5344376349    1.8694573284    0.9007808828
 H    0.4806135895   -0.4114597443   -0.8985626453
 H    0.5301433153   -0.3882831962    0.8688987331
 H   -1.4922805297   -0.9739025744   -2.0086978908
 H   -2.9221323570   -1.4582702448   -1.0792415308
 H   -2.6212445645    0.2594878982   -1.4043621252
 H   -2.3152504379   -0.7590635235    4.3831558116
 H   -4.5268389576   -1.5968779737    2.8867771144