19

 C   -0.1785545096    1.3404132808   -0.2214639729
 O    1.0584243047    1.7306945261    0.4192490956
 C    1.4759646067    0.3566098490    0.5529871691
 C    1.1164827551   -0.2446884084    1.9288521848
 C   -0.2395670045   -0.7455992894    1.3509503697
 C   -0.6356887321   -2.2325173337    1.4668221516
 O   -1.9199587364   -1.9023622044    2.0275021929
 C   -1.6053283771   -0.4953907046    2.0206300194
 C    0.1307216508   -0.1552750981   -0.0367890962
 H   -1.0615556803    1.7395321881    0.2934549049
 H   -0.2036266064    1.6670629231   -1.2688077700
 H    2.4701864863    0.1783373569    0.1358834015
 H    1.7723986489   -1.0619532901    2.2459835080
 H    1.0571664464    0.4968252511    2.7296915316
 H   -0.7266603086   -2.7816160420    0.5199958810
 H   -0.0216208168   -2.8207648828    2.1629362530
 H   -1.5550554284   -0.0793390160    3.0358090865
 H   -2.3314010055    0.0838233476    1.4355517246
 H    0.0288568468   -0.8088015632   -0.9032705750