20

 C    0.0934498054    1.3962356357    0.0062294266
 N    0.0268835430   -0.0392328898    0.1026772455
 C   -1.1027418089   -0.9766554757    0.1140618369
 C   -0.0571195667   -2.1393035718    0.0682799381
 C    0.0090847012   -3.0384155036    1.2980539782
 C    0.0057447232   -2.9359789206   -1.2431505070
 O    1.2422210121   -3.6090512978   -1.3639184498
 C    0.9904472171   -1.0035943473    0.0175726242
 O    2.1924091799   -0.9577859370   -0.1260927423
 H    1.1472283364    1.6763717661   -0.0637034166
 H   -0.4296985514    1.7633429984   -0.8855642652
 H   -0.3440233203    1.8785863081    0.8881676701
 H   -1.7135858490   -0.9310244804    1.0221420522
 H   -1.7498038598   -0.8922081267   -0.7675758093
 H   -0.8816505092   -3.6738428569    1.3578133892
 H    0.8844136505   -3.6885514215    1.2333052467
 H    0.0755245098   -2.4550002547    2.2215144164
 H   -0.7760169105   -3.7043700947   -1.2682094056
 H   -0.1708675081   -2.2566829404   -2.0942518164
 H    1.9373227755   -2.9501545593   -1.2237845517