20

 C    0.0078904024    1.4855797129    0.2587295714
 C   -0.0081509648   -0.0222250532   -0.0036131313
 C   -1.4222156536   -0.6106680381   -0.0023203161
 C   -1.4353937261   -2.1244995653   -0.2357764402
 O   -0.7729069624   -2.8587878260    0.8004523327
 C   -1.7672164169   -3.3377887136    1.6622614816
 O   -2.9601383235   -3.4790092398    0.8911300986
 C   -2.8357208994   -2.7084362730   -0.2284078675
 N   -3.7228686028   -2.5084678392   -1.0999391539
 H    1.0288420590    1.8792983743    0.2476182595
 H   -0.5672192101    2.0273571643   -0.5002831619
 H   -0.4292630881    1.7229909570    1.2350570005
 H    0.4667343745   -0.2333937443   -0.9709740935
 H    0.5926932734   -0.5405622823    0.7521816308
 H   -1.9217788829   -0.3873438497    0.9500834137
 H   -2.0346554152   -0.1543255745   -0.7888880617
 H   -0.9303721150   -2.3620701174   -1.1770948505
 H   -1.4731080410   -4.3172359810    2.0502058506
 H   -1.9683438249   -2.6433137384    2.4933536045
 H   -4.5896315426   -2.9923226427   -0.8617566273