20

 C    0.2134523451    1.4395810492    0.2076112630
 C   -0.1975977710   -0.0047049586   -0.1050026592
 C    0.5967392301   -0.5830202224   -1.2594034480
 C    1.9594637937   -1.2020232760   -1.1676667947
 C    2.1400065960   -2.0332965080    0.1088874246
 C    0.9026599158   -2.9021050975   -0.2780180110
 C    0.7290887845   -2.0657441984   -1.5611785506
 C    0.3845420753   -2.6057647957   -2.8345593788
 N    0.1031444782   -3.0551706947   -3.8645448450
 H    1.2694290915    1.4971808456    0.4914643339
 H    0.0685159040    2.0895972235   -0.6619264423
 H   -0.3800021094    1.8472868875    1.0312491584
 H   -0.0795183133   -0.6192611248    0.7927051115
 H   -1.2639076159   -0.0393625447   -0.3598382519
 H    0.4834461177   -0.0119961813   -2.1795616896
 H    2.7645244483   -0.8906113868   -1.8220221839
 H    3.0640633991   -2.6134020251    0.1012290248
 H    2.0855604852   -1.4821129307    1.0518895709
 H    1.1759031318   -3.9344061552   -0.4997070828
 H    0.0503762633   -2.9048174359    0.4063543107