20

 C    0.2862602448    1.6345988769   -0.0745525805
 C    0.0598751871    0.1295683292    0.0333645848
 C    0.4771613491   -0.7757365542   -1.1776284164
 C    1.2663515793   -1.7195927663   -0.2128935596
 C    2.7405519133   -2.0089004939   -0.4946844287
 O    3.3634746533   -2.6349970369    0.6071473631
 C    1.0169131587   -0.6972027572    0.8786998080
 N    1.5923198774   -0.6156687153    2.0058186893
 O    1.1863931933    0.5200285668    2.7314879522
 H    1.3210196094    1.8557832536   -0.3558260964
 H   -0.3700820832    2.0627388893   -0.8396699137
 H    0.0843170808    2.1309843354    0.8770305993
 H   -0.9754706414   -0.0701076922    0.3361685626
 H   -0.3357967236   -1.2338974480   -1.7424812201
 H    1.1366908185   -0.2482449978   -1.8732652525
 H    0.7448880640   -2.6631554937   -0.0184081444
 H    2.8392403293   -2.6908659762   -1.3468096353
 H    3.2464509135   -1.0669844910   -0.7671019095
 H    3.1943986082   -2.0728856518    1.3762450372
 H    1.6925602881    0.4355711533    3.5466263406