18

 C    0.1632768546    1.3895948236    0.2085326825
 C   -0.1784931585   -0.0983306033   -0.0153244838
 C   -1.6250317985   -0.2982220923   -0.1093027116
 C   -2.8141703176   -0.4406635168   -0.2078961902
 C    0.5171680728   -0.6345322420   -1.2619421822
 C    1.9607017331   -1.0301381069   -1.2276452758
 C    0.8921341059   -2.1043167386   -1.3934707586
 C    0.6486141265   -3.0180217482   -0.3125839613
 N    0.4615829472   -3.7532865050    0.5612011586
 H    1.2444821256    1.5195741371    0.3117549463
 H   -0.1803821320    1.9967054505   -0.6342638148
 H   -0.3223739091    1.7619388324    1.1136342510
 H    0.1874592175   -0.6679914273    0.8492552830
 H   -3.8640702832   -0.5839015446   -0.2780438188
 H    0.1591159164   -0.1904507603   -2.1861748171
 H    2.5891452789   -0.8215337931   -2.0854896632
 H    2.4727371008   -1.0020011546   -0.2720777533
 H    0.7841398297   -2.5493690707   -2.3764751208