17

 C   -0.1388209780    1.4718102845   -0.0070053530
 N    0.0921957852    0.0375634954   -0.0349432905
 C    0.7194008319   -0.5818486903    1.0098961654
 N    1.2197076499    0.0769052519    1.9839950838
 C    1.9685687555   -0.7142483820    2.9485175668
 C    1.4115852976   -2.1034000620    3.2287840724
 O    1.4687948928   -2.6614760081    4.2879271325
 O    0.7906594496   -2.7127073698    2.1805442564
 C    0.8566406722   -2.0851426553    0.9015687311
 H    0.8077521831    1.9852269049    0.1739334367
 H   -0.5400670080    1.7842573953   -0.9733855906
 H   -0.8335488470    1.7683519899    0.7891334381
 H   -0.5629351061   -0.5170324427   -0.5611984464
 H    3.0144848783   -0.8380077233    2.6218881026
 H    2.0102250969   -0.1922695987    3.9066516864
 H    0.0577518375   -2.5359355385    0.3059142988
 H    1.8108923186   -2.3302758912    0.4138199795