24

 C   -5.6729247677   -4.2511517275    0.0194360752
 C   -4.3863084939   -4.0733565994   -0.7894038197
 O   -4.6442801170   -4.1422829213   -2.1928176217
 C   -3.6864053530   -2.7674157133   -0.4487317439
 N   -2.7422069943   -2.5865083627    0.6599899210
 C   -2.3930440876   -3.6873957857    1.5440272820
 C   -2.2357050246   -2.5084904828   -0.7187670022
 C   -1.3499521909   -3.5917887359   -1.3086302953
 C   -1.8205117957   -1.1073688559   -1.1313828177
 H   -6.1826445848   -5.1718475094   -0.2771717855
 H   -5.4620259571   -4.2950996641    1.0928056645
 H   -6.3554132726   -3.4091008817   -0.1503493439
 H   -3.7303451402   -4.9255220044   -0.5974043049
 H   -5.2087475551   -3.3950545520   -2.4211205524
 H   -4.3649060445   -1.9146466894   -0.5590661575
 H   -2.2855772433   -4.6753853812    1.0742269455
 H   -1.4435686170   -3.4504913186    2.0355282921
 H   -3.1569446133   -3.7688324617    2.3247530259
 H   -1.3924273715   -3.5504971767   -2.4015042036
 H   -0.3069890061   -3.4344494628   -1.0099087858
 H   -1.6330177489   -4.6020382056   -1.0120989990
 H   -0.7879998461   -0.9016247833   -0.8256216384
 H   -1.8774676036   -0.9862354459   -2.2192664696
 H   -2.4651209513   -0.3611821587   -0.6606193951