16

 C   -0.6032029200   -1.1292829887    0.1818723440
 C   -0.3051424320    0.0346991077    0.1324686553
 C   -0.0490545162    1.4456779213    0.0801728078
 C    0.5336444938    2.2142124792    1.2077003791
 C    1.5490853588    1.3802419232    1.9824130765
 C    2.3479360050    1.3019933418    0.6432669267
 C    2.7867142647    0.0371182658    0.0902960884
 C    3.2247576843   -0.9868382887   -0.3621547511
 N    1.2848052570    2.0951304985   -0.1035709232
 H   -0.8347780294   -2.1651761168    0.2124739769
 H   -0.7780067446    1.9965545255   -0.5101988925
 H    0.1045536155    3.1556037489    1.5351845109
 H    2.0832923703    1.9236942893    2.7620235177
 H    1.1722908358    0.4371227160    2.3824569986
 H    3.2101677634    1.9736580374    0.6948067237
 H    3.5808408237   -1.9018986404   -0.7664835888