14

 O    0.1072772102    1.3822975197    0.0868177434
 C    0.0306296651    0.0194342006    0.0258561516
 C    0.4607121837   -0.8074108230    1.2418603571
 C   -0.8442025732   -1.4703157192    1.4407899820
 C   -1.3020839987   -0.9297286645    0.0588714390
 C   -0.3461584809   -1.9712996681   -0.6126808717
 N    0.2436478269   -2.2346870939    0.7600093179
 C    0.4244143082   -0.7887246001   -1.2120839992
 O    0.8205985913   -0.4647644270   -2.2957466036
 H    0.1472739729    1.7144991009   -0.8199159066
 H    1.2856554615   -0.6238489247    1.9183029051
 H   -1.3579382834   -1.8259499348    2.3248434841
 H   -2.2728788183   -0.6111587110   -0.3066361915
 H   -0.6288799951   -2.8595517350   -1.1689243777