21

 C   -0.9370445579    1.1031198950    0.0146847799
 C    0.0195561642   -0.0803190923    0.0374556612
 C    1.2489644199   -0.0783797263   -0.9183185377
 C    2.1750195533   -0.5728185582    0.2521251581
 C    2.9187169114   -1.8756303125    0.0634807735
 C    0.9666176466   -0.3034634544    1.2467245237
 C    1.7054287913    0.9488703270    1.8041720158
 C    2.9031225971    0.6092307026    0.8944960967
 O    4.0153802185    1.0435865674    0.7937041148
 H   -0.4117064206    2.0566437216    0.1329679769
 H   -1.4774849676    1.1466914524   -0.9374367032
 H   -1.6806021814    1.0288180548    0.8161180385
 H   -0.5535541544   -1.0005014077   -0.1212264367
 H    1.1937635285   -0.7751468312   -1.7583242126
 H    1.5159275918    0.9059501575   -1.3147925935
 H    3.7195932366   -1.7518092844   -0.6736943208
 H    3.3788258734   -2.2148164377    0.9975091298
 H    2.2510145667   -2.6671551033   -0.2936102073
 H    0.6609203443   -1.0302390414    2.0003455781
 H    1.2458015382    1.9274166257    1.6407672665
 H    1.9688643501    0.8763549454    2.8641942585