17

 N   -0.4213529291    1.1926268242   -0.2969796089
 C   -0.0003783366   -0.1732507983    0.0657914786
 C   -1.2496567029   -1.0917300288    0.2112118806
 C   -1.4035680432   -1.7615227405   -1.1623840763
 O   -2.2753716767   -0.9397716315   -1.9535150583
 C    0.0111596023   -1.7461561160   -1.7051880203
 C    0.7795638931   -0.8878873027   -1.0390601288
 C    0.7789906110   -0.1003985177    1.3122916627
 N    1.4160080972   -0.0608107961    2.2754996197
 H    0.3893728799    1.7557901459   -0.5407464145
 H   -1.0002119558    1.1179977948   -1.1306968098
 H   -1.0613116234   -1.8523519249    0.9711020607
 H   -2.1330873399   -0.5181970747    0.4936123853
 H   -1.8233337802   -2.7726499131   -1.0789964383
 H   -2.2609656009   -1.2679387817   -2.8588993824
 H    0.3107808934   -2.3113454158   -2.5815096150
 H    1.8105853716   -0.6337018730   -1.2578153350