20

 C   -0.6464484101    1.1727868865    0.4084746287
 C   -0.0908459084   -0.1824774787    0.0374336652
 C    0.7269563180   -0.4317008288   -1.2156278095
 C    1.2256551250    0.6864019702   -2.1248817857
 C    2.7477621176    0.7808509133   -2.0648533470
 O    3.4453577510    0.9441979376   -3.0361762528
 C    3.3536987894    0.6288194073   -0.6642410464
 N    2.3063281427    0.5821956061    0.3488508427
 C    1.3871427781   -0.5041257115    0.1449864333
 H    0.1210103060    1.9464531325    0.3410811977
 H   -1.4860497324    1.4520876881   -0.2377250144
 H   -1.0129436177    1.1644069992    1.4407578049
 H   -0.7412789438   -1.0147083685    0.2951417500
 H    0.5539905435   -1.3762427109   -1.7206480580
 H    0.9322643153    0.5354924911   -3.1658005059
 H    0.8244843781    1.6571607394   -1.8110227555
 H    4.0070952329   -0.2624550518   -0.6905929041
 H    4.0050401170    1.4915272597   -0.4878916606
 H    2.6814051508    0.6063359746    1.2880447568
 H    1.6708777171   -1.4884624554    0.5237483205