20

 C   -0.1102398806    1.5284311181   -0.1178720584
 C    0.0286648398    0.0252867454    0.0554147634
 O    0.7083468755   -0.4520388469   -1.1340884297
 C    1.2343327254   -1.6979714993   -1.0703182560
 N    1.3311440929   -2.4840112544   -0.0850995457
 C    0.8667109375   -2.0010329486    1.2130654970
 C    0.7594974043   -0.4866225676    1.2833464394
 C    1.9111012693    0.2803802603    1.8852407099
 C    0.6023887262    0.1636507197    2.6304107637
 H    0.8672147481    2.0157105386   -0.1566147120
 H   -0.6279117481    1.7377219109   -1.0573937959
 H   -0.6942485781    1.9635867762    0.6970834742
 H   -0.9738619486   -0.4280674666    0.0443608111
 H    1.6073479353   -1.9890095167   -2.0513015747
 H   -0.1060383360   -2.4658865766    1.4308977534
 H    1.5569951478   -2.3695219749    1.9807944292
 H    2.7603358590   -0.2922008147    2.2427654386
 H    2.1749943008    1.2480225189    1.4743350030
 H   -0.0139306191    1.0516463308    2.7173980427
 H    0.5582082086   -0.4883796626    3.4972906768