21

 C    0.0783576604    1.5578965114    0.1812017188
 C    0.0568302491    0.0284513565    0.1233272495
 C    0.2609435923   -0.5801191435    1.5228881451
 N   -1.1711239036   -0.3831598789   -0.5626932542
 C   -1.3310261793   -1.7892196192   -0.8925722897
 C   -2.2913873688   -2.5486344544    0.0581627671
 O   -3.5411843079   -1.8949546340    0.1490306005
 C   -1.8659721858   -1.9240993424   -2.2687333563
 N   -2.3442547531   -2.0497849665   -3.3137019731
 H    1.0142326162    1.9186917349    0.6176495844
 H   -0.0329498105    1.9815106666   -0.8196624436
 H   -0.7433943876    1.9331497182    0.8033016027
 H    0.8889104198   -0.2985351986   -0.5155403378
 H   -0.5539763386   -0.2880522886    2.1955024770
 H    0.3006901336   -1.6738550784    1.4921390590
 H    1.2016734806   -0.2329742576    1.9634402384
 H   -2.0067903775   -0.0543369948   -0.0890449194
 H   -0.3537082232   -2.2863781737   -0.8723528702
 H   -2.3942425049   -3.5932785232   -0.2681797822
 H   -1.8669944891   -2.5397953574    1.0651289870
 H   -3.9911246821   -1.9911309366   -0.6991224730