19

 C   -0.0001379993    1.4848287240    0.0396039656
 C   -0.0052772254   -0.0181300188   -0.0377844893
 C    0.7271219882   -0.7318881861   -1.1939565074
 C    0.5217187404   -2.1467794082   -0.6667557530
 C    0.4648148856   -1.9777074861    0.8304960016
 O    0.6137130011   -0.6006206897    1.1390141906
 C   -0.8231574230   -2.1611573113    0.0621232731
 C   -1.3854567460   -0.7455976869   -0.0207958015
 O   -2.1955787830   -0.3773765914    1.0713255060
 H    1.0146247171    1.8613229604    0.1954480083
 H   -0.3903810219    1.9120439713   -0.8889177877
 H   -0.6335134675    1.8248417213    0.8630995875
 H    0.2490656535   -0.5468059783   -2.1603189913
 H    1.7817377028   -0.4462822635   -1.2524548829
 H    0.9354226509   -3.0272688364   -1.1396029394
 H    0.8742723787   -2.6558044183    1.5652867116
 H   -1.4507211032   -3.0378514083    0.1442156452
 H   -1.9660765190   -0.5524802270   -0.9266585328
 H   -1.6325420501   -0.4494282167    1.8531599057