19

 C   -0.0787499502    1.4772617443    0.0385239138
 C    0.0781005787   -0.0391430463    0.0100412546
 N    0.6053886172   -0.4763882474   -1.2778554586
 C    0.7832942300   -1.8389540651   -1.4801671720
 N    0.2531773834   -2.7720282506   -0.6956935302
 N    0.6215634414   -3.9414319487   -1.2768319002
 C    1.3702066096   -3.7657838791   -2.3981046316
 C    1.5000499951   -2.4050900369   -2.5715948392
 N    2.2122233811   -1.6461668108   -3.5296715610
 H    0.8875426949    1.9794524003   -0.0914092929
 H   -0.7447245428    1.8158700110   -0.7608067628
 H   -0.4927323460    1.8029008733    0.9971811767
 H    0.7119486199   -0.3750055186    0.8468555946
 H   -0.8914720437   -0.5267599313    0.1509810406
 H    1.4247748352    0.0431997160   -1.5716460957
 H    0.3675071472   -4.8040302991   -0.8321597665
 H    1.7441824946   -4.5981519540   -2.9736932379
 H    2.7265660581   -2.2355739843   -4.1728892191
 H    1.5873051063   -1.0607137128   -4.0765598627