19

 C    0.0526049657    1.5137697309    0.0144925084
 C    0.0362823808    0.0167589927    0.0048874872
 C   -0.0181946264   -0.7883108844   -1.1090783332
 N   -0.0733814887   -0.5439000986   -2.5017231143
 N   -0.0140417567   -2.1062174820   -0.6717590981
 C    0.0418267945   -2.1285748841    0.6877583002
 O    0.0542277498   -3.3439132662    1.3013231159
 C    0.0750892647   -0.8381383017    1.1645832356
 C    0.1388067785   -0.4061991003    2.5978575628
 H    0.9586392912    1.9144808563    0.4868826626
 H    0.0123628070    1.9090493689   -1.0054790704
 H   -0.8002175212    1.9330575695    0.5635573105
 H   -0.8968365190   -0.0146225923   -2.7679801237
 H    0.7369268134   -0.0332831912   -2.8360764480
 H   -0.0477441330   -2.9091420174   -1.2753518041
 H    0.0960840310   -3.1971121696    2.2511480741
 H    1.0379232419    0.1842635915    2.8154700768
 H   -0.7233704879    0.2085865396    2.8860282813
 H    0.1543677244   -1.2622934415    3.2841298565