16

 C   -0.0661496207    1.5007093198   -0.0387408621
 C   -0.0022329932    0.0088742301    0.0892063449
 O   -1.2563796212   -0.6349966890   -0.1451699220
 C   -1.2736617651   -1.7085970531    0.6860075345
 N   -0.2697686422   -1.9134028172    1.4401825201
 C    0.6596855397   -0.8499653784    1.1336845365
 C    1.2361989870   -0.7992422717   -0.2957475559
 C    1.2321971250   -1.9517455017   -1.2270472939
 O    2.0739915637   -2.1063656079   -2.0803578966
 H    0.8960056477    1.9422322094    0.2324058348
 H   -0.2995406418    1.7962290965   -1.0661585347
 H   -0.8358850214    1.9088194139    0.6231798151
 H   -2.1678264796   -2.3169253326    0.6294959333
 H    1.2814553859   -0.4924390975    1.9454483055
 H    2.1268384479   -0.1865205944   -0.3909595089
 H    0.4110972884   -2.6840916763   -1.0985908907