12

 N   -0.0306416081    1.4314725557    0.1556412237
 C    0.0075535986    0.0411472844    0.0407504307
 C   -1.0410100289   -0.8401692433    0.0017330368
 O   -0.5939205205   -2.1253541589   -0.0254327634
 C    0.7625639199   -2.0659979636   -0.0109690841
 C    1.1867005707   -0.7658807791    0.0327035329
 C    1.4800012099   -3.2807990379   -0.0414474649
 N    2.0908986069   -4.2651989395   -0.0670739964
 H    0.7365403783    1.8936962525   -0.3130678020
 H   -0.9080483675    1.8398847328   -0.1363684174
 H   -2.1106857812   -0.7144890323   -0.0025907590
 H    2.2117150619   -0.4310730806    0.0608172930