22

 C   -0.0877145010    1.5465387331   -0.0916897636
 C    0.0063424121    0.0104488285    0.0378245090
 C    0.8954600923   -0.3684941595    1.2440320218
 C   -1.4018995742   -0.6534660780    0.1386835661
 C   -2.2388859090   -0.2344197504    1.3297374768
 C   -3.1899946817    0.9369884536    1.2479116833
 C   -3.7296839740   -0.4690811855    1.2983707193
 C    0.6429993752   -0.5182051849   -1.1816417425
 N    1.1346420063   -0.9367099902   -2.1407615978
 H    0.9069207534    1.9849237686   -0.2097636263
 H   -0.6902900738    1.8334928997   -0.9577854348
 H   -0.5490128017    1.9663965322    0.8048296448
 H    0.4835881450    0.0556729751    2.1634998286
 H    0.9612627251   -1.4539056377    1.3600788432
 H    1.9082260490    0.0222592291    1.1152080466
 H   -1.9537929490   -0.4336192057   -0.7829867217
 H   -1.2582613196   -1.7408243180    0.1580831955
 H   -1.7718743595   -0.3938566718    2.2972994208
 H   -3.3099067697    1.5682175794    2.1216090640
 H   -3.2591877213    1.4693766575    0.3051919720
 H   -4.1564883023   -0.8802111516    0.3893335329
 H   -4.2159833615   -0.8042884633    2.2074440819