23

 C   -0.1172138426    1.5707052360    0.0054426814
 C    0.0154402409    0.0526814684   -0.0201669515
 C    1.1512816472   -0.5781872840   -0.8891605867
 C    2.1221112458   -0.2870790714    0.2899498934
 C    0.8404481081   -0.6064196341    1.1247787908
 O    0.6332306792   -0.1469783382    2.4260593245
 C    0.6694692443   -2.1245064731    0.8494792383
 C   -0.6418006704   -2.7326232341    1.3405390229
 C    0.8756955121   -2.0864194211   -0.7043681181
 H    0.8400936850    2.0863971097    0.1137275736
 H   -0.5834185360    1.9281943882   -0.9191326549
 H   -0.7516301559    1.8805932505    0.8418893839
 H   -0.9763141693   -0.3837934672   -0.1823347174
 H    1.3560905901   -0.2219447069   -1.8986294132
 H    2.9893105642   -0.9450058044    0.4098165937
 H    2.4318088959    0.7546922960    0.3630888169
 H    1.2114156449   -0.6387832586    3.0196281891
 H    1.4982934363   -2.6642537384    1.3275794900
 H   -1.5125410534   -2.2594808437    0.8756262564
 H   -0.6858536488   -3.8025351561    1.1113760659
 H   -0.7429299932   -2.6137820639    2.4243306872
 H   -0.0204223487   -2.4104906751   -1.2439665127
 H    1.7111285240   -2.7106882585   -1.0349229136