18

 C    0.9121900998    1.4191793460   -0.4759817007
 N    0.8590643238   -0.0159649522   -0.6632894443
 C   -0.3007255493   -0.7140019408   -0.6570587829
 O   -1.4142844264   -0.2343272634   -0.5195902685
 C   -0.1387246766   -2.2253568425   -0.8380471932
 C   -0.9815712909   -2.7573279966   -2.0283637519
 O   -0.0937154260   -3.6480022463   -2.6921395735
 C    1.1771572964   -3.1079434240   -2.4837034804
 O    1.1981975289   -2.6311346741   -1.1451994701
 H    1.4753130684    1.6827734325    0.4261812371
 H    1.3767317218    1.9156672218   -1.3349309346
 H   -0.1142981793    1.7735373095   -0.3707978489
 H    1.7042157774   -0.5551383376   -0.7715496151
 H   -0.4302407485   -2.7018465987    0.1036619911
 H   -1.8642044700   -3.3167473471   -1.7181544357
 H   -1.2925170178   -1.9345103824   -2.6852132795
 H    1.9307346020   -3.8912924365   -2.5981588384
 H    1.3766038163   -2.2747000976   -3.1827331605