18

 C   -0.0107242301    1.6641112809    0.0254223683
 C    0.0525334936    0.1562632357    0.2352734662
 N    1.0540112864   -0.7886979887   -0.2643004861
 C    2.4817335806   -0.3737579270    0.0343467731
 C    2.7701852014    0.8776887648    0.8306011581
 C    2.2637902064   -0.3505346758    1.5255091935
 C    0.7826903586   -0.6670373283    1.2544467273
 C    0.0726945559   -1.7556600936    1.9676211785
 O   -1.0039631497   -2.1980604911    1.6445429575
 H    0.7191776874    2.0039828601   -0.7120341018
 H   -1.0025834936    1.9207876833   -0.3556483065
 H    0.1385173036    2.2266984042    0.9506300745
 H   -0.9148788992   -0.3187257228    0.0766880791
 H    3.2402174117   -0.8754110612   -0.5512783271
 H    3.8389461388    1.0271084903    0.9621135737
 H    2.2144839261    1.7992003281    0.7658071974
 H    2.8154577491   -0.8725847764    2.2970126489
 H    0.6085652728   -2.1439158426    2.8634563155