17

 C   -0.0531570203    1.4510921883   -0.2592107629
 N   -0.1589445236    0.0072354873   -0.3558029426
 C   -1.2124599115   -0.6783391742    0.1478999581
 O   -2.1591780830   -0.1654064288    0.7214060902
 C   -1.1673525211   -2.1867950794   -0.0382590440
 C   -1.8193432468   -3.0045303058    1.0817256366
 C   -2.5296356493   -2.8657814739   -0.2150612284
 C   -0.0347819074   -2.7471980217   -0.7186157332
 N    0.9001500086   -3.1466252208   -1.2734319122
 H    0.8411785486    1.7432951569    0.3011669691
 H   -0.0108734311    1.9097276440   -1.2527485890
 H   -0.9381639714    1.8125175820    0.2647493083
 H    0.5780507291   -0.5054120262   -0.8144552206
 H   -1.3521531560   -3.9503475571    1.3270610972
 H   -2.1722789286   -2.4080477216    1.9138790352
 H   -3.3629898731   -2.1756111963   -0.2598859892
 H   -2.5654488031   -3.7133441027   -0.8884036527