23

 C   -0.1079921644    1.5542775848    0.0650027170
 C    1.4228524153    1.2670479261    0.0988882937
 C    1.0989829536    0.1559169728    1.1392188198
 C    0.0350735035    0.0055943556    0.0111083570
 C    1.1920541041    0.2023732942   -1.0301822377
 C    0.8430670616    0.6865487447   -2.4660475302
 C    1.9063602892    0.0664765078   -3.3880278652
 C    2.2053976476   -1.2811292775   -2.7214474127
 C    2.2363403627   -0.9333697545   -1.2237076837
 H   -0.5373679469    1.9642030236    0.9833935453
 H   -0.5139589162    2.0557728268   -0.8141702522
 H    2.2321293517    2.0001274789    0.1478193037
 H    1.8263647224   -0.6467670722    1.2651840746
 H    0.7235293393    0.5001749812    2.1068781265
 H   -0.7721258303   -0.7294315852   -0.0426949437
 H   -0.1501330442    0.3163005953   -2.7507220514
 H    0.8102073720    1.7756007068   -2.5516736864
 H    1.5723672785   -0.0218869061   -4.4259508861
 H    2.8117136366    0.6867928918   -3.3892131851
 H    1.3886387761   -1.9845055532   -2.9279098060
 H    3.1312012653   -1.7475795994   -3.0706688666
 H    3.2352392439   -0.5683540204   -0.9525283891
 H    2.0379154585   -1.8054755019   -0.5956128715