19

 O    0.3476903757    1.2319636206   -0.2577437308
 C    0.0979019368   -0.1460988389   -0.0506642994
 C    0.2484547662   -0.5553391531    1.4503945529
 O    0.9048313319    0.3788248444    2.2607839985
 C   -1.3031206260   -0.6763883299    1.5661157478
 C   -2.0288163869    0.5877330799    2.0474245786
 O   -2.1839024311    1.4368089700    0.8961188806
 C   -2.3988350374    0.5661913922   -0.2212282336
 C   -1.4093619865   -0.5691540559    0.0051113045
 H   -0.3869905548    1.7200341252    0.1522226348
 H    0.7267226179   -0.6851441977   -0.7624561830
 H    0.7226957915   -1.5373693245    1.5650209289
 H    1.1210708023    1.1189632289    1.6730629298
 H   -1.6765904010   -1.5773108732    2.0545028516
 H   -3.0179349389    0.3378487765    2.4545689338
 H   -1.4594242054    1.1452451458    2.7938427312
 H   -3.4341584976    0.1939650103   -0.2314247239
 H   -2.2206071573    1.1468268528   -1.1297511014
 H   -1.6447364692   -1.4809646233   -0.5444946208