19

 C    0.7103526399    1.5131223698   -0.3278245218
 C    0.0190101110    0.2047550206    0.0843613720
 C    0.1331726543   -0.8903932286   -1.0147922198
 C    1.4775076262   -1.5968711679   -0.7513118586
 C    1.6778515190   -1.4922071664    0.7596207715
 O    2.4504314773   -2.1142236458    1.4408448026
 C    0.6916910984   -0.4526101899    1.2802216753
 C    0.8345871969    0.0997584829    2.6319949483
 O   -0.1238430728   -0.9201802264    2.3708147776
 H    1.7707177568    1.3592850042   -0.5575115491
 H    0.2362574623    1.9324828823   -1.2207977739
 H    0.6521608522    2.2617617786    0.4678227558
 H   -1.0274973218    0.4103284114    0.3255801435
 H   -0.6859499869   -1.6079039729   -0.9013844985
 H    0.0636787615   -0.4709602913   -2.0216330497
 H    1.5215835001   -2.6379451168   -1.0787077524
 H    2.3119055648   -1.0758126881   -1.2383010598
 H    1.6884772945   -0.2094163488    3.2322187646
 H    0.4240280962    1.0856906032    2.8472112623