16

 N    0.0405150928    1.3767416597    0.0044601089
 C   -0.0797801145   -0.0069526896   -0.0016583597
 C   -1.1727105651   -0.8159985542    0.0081121254
 N   -2.5184650728   -0.4588319502    0.0757405210
 C   -0.7083240010   -2.1837388825    0.0025547509
 N   -1.5566218560   -3.3175305608   -0.0811413760
 C    0.6475142672   -2.0943957808   -0.0008477029
 O    1.5786334216   -3.0717696367   -0.0360377546
 O    1.0786825470   -0.8192357678   -0.0071369142
 H    0.5547503945    1.7449329234   -0.7895949178
 H    0.4507064612    1.7536699120    0.8539422830
 H   -2.6759187643    0.4964229107   -0.2188538955
 H   -3.1000434861   -1.1040465565   -0.4460798453
 H   -1.9450209739   -3.5638352752    0.8254187086
 H   -1.0448851658   -4.1252546053   -0.4183999209
 H    2.4341659552   -2.6584902661   -0.1984805909