18

 C   -0.3222351931    1.3823392295    0.5370011460
 C   -0.0151313515   -0.0133803217    0.0351236666
 C    1.3312609607   -0.3377865885   -0.5626414592
 C    0.9462677222   -0.8913089363    0.7887959799
 N   -1.1498983627   -0.6773016109   -0.5575870430
 C   -1.4961627335   -0.7928747577   -1.8583078515
 N   -2.6644762698   -1.3952571298   -1.9800444099
 C   -3.0080209924   -1.6243594548   -0.6826010450
 N   -2.1325612455   -1.2075639164    0.2169569021
 H    0.5629413353    1.8239224571    1.0027677014
 H   -0.6401355539    2.0348010051   -0.2829973184
 H   -1.1238925403    1.3481416790    1.2803169481
 H    1.3707743770   -1.0310631522   -1.3944899086
 H    2.0574929099    0.4657749688   -0.6115141466
 H    1.4098939712   -0.4720911727    1.6742541374
 H    0.7088049682   -1.9457655793    0.8552463493
 H   -0.8717746572   -0.4341973402   -2.6621772307
 H   -3.9254695048   -2.1153242993   -0.3933055780