18

 C   -0.0875378679    1.5599660575    0.0562194985
 C    0.0366950759    0.0471387671   -0.0091156755
 C   -1.1112770988   -0.6428974748    0.5287894577
 N   -2.0330435854   -1.1898891611    0.9659253911
 C    0.7115302158   -0.6900003484   -1.1649286239
 C    1.6331401616    0.1001875035   -2.0960190354
 C    2.7704461583    0.5302026105   -1.1933774312
 C    2.6224373131    0.0705105443    0.0523986616
 C    1.3668973654   -0.7166412198    0.1987417838
 H    0.8424016253    2.0454259564   -0.2422192992
 H   -0.8891229255    1.9068351280   -0.6032590695
 H   -0.3275209621    1.8798336884    1.0742606800
 H    0.1951842006   -1.5583095503   -1.5544848716
 H    1.9872555330   -0.5330314346   -2.9193870373
 H    1.1310202216    0.9565511430   -2.5647579262
 H    3.5827249729    1.1590850643   -1.5394155423
 H    3.3027031171    0.2466055425    0.8769454847
 H    1.3330788192   -1.5845865164    0.8466563548