15

 C   -0.0546548100    1.3496809086   -0.0540582172
 O    0.0407204517   -0.0779007855    0.0588514307
 C    0.6736946088   -0.5400515628    1.1231069619
 N    1.1890627865    0.2122300663    2.0285894564
 C    1.8110052653   -0.4619713978    3.0662317291
 C    1.8881372772   -1.8051387998    3.1509014711
 C    1.2990693486   -2.6218232330    2.1171564475
 N    1.2967621437   -3.8851452122    2.0690507924
 O    0.6771096538   -1.8784050623    1.0820645867
 H    0.9409011255    1.7964101946   -0.0992762862
 H   -0.6012712887    1.5266322481   -0.9798099669
 H   -0.5930463614    1.7650978297    0.8005127423
 H    2.2449379993    0.1763575081    3.8289681517
 H    2.3774719767   -2.3157667270    3.9680174044
 H    0.8155590831   -4.2233654050    1.2361775759