22

 C   -0.1456539346    1.5371914774    0.1096838716
 C    0.0057859179    0.0169870221   -0.0272307465
 C    0.7776132594   -0.4667830127   -1.2686593461
 C    2.2319153325    0.0358489529   -1.2788644877
 C    0.7603687467   -2.0222782497   -1.3834084256
 C    0.4659069397   -2.2988090378   -2.8785618350
 O    0.5181799681   -1.0408809564   -3.5420092809
 C    0.0892461514   -0.0769978165   -2.5968852363
 H    0.8219496406    2.0385853371    0.2054379962
 H   -0.6621474122    1.9718511658   -0.7529953504
 H   -0.7316009736    1.7852298281    1.0002019266
 H    0.4998718796   -0.3775772377    0.8703151336
 H   -0.9935065023   -0.4375620250   -0.0456767635
 H    2.7801884603   -0.3291702516   -0.4032498249
 H    2.7479940254   -0.3203207949   -2.1755088606
 H    2.2861343023    1.1289103308   -1.2779933900
 H    1.7155487325   -2.4506476809   -1.0684770164
 H   -0.0158343829   -2.4566594545   -0.7467882940
 H    1.1956433294   -2.9572492201   -3.3576344109
 H   -0.5308005382   -2.7509198011   -3.0013865620
 H   -1.0094787450   -0.0996072200   -2.4830934323
 H    0.3771495227    0.9081786048   -2.9732166850