19

 C   -0.0365257208    1.6694457375   -0.0858764089
 C   -0.0132824689    0.1400344809    0.0472789507
 C    0.7625623876   -0.3049951559    1.3039993294
 C    2.2367993024    0.0175550298    1.2053904412
 O    2.8699111960    0.6386970398    2.0183187481
 C   -1.4449102726   -0.4472479848    0.0819363048
 O   -2.1759678908    0.0356514541    1.1742868872
 C   -2.1854190388   -0.1674596389   -1.2111527850
 O   -3.2590200882    0.3839576640   -1.2239278371
 H    0.9747267327    2.0851816310   -0.0580904302
 H   -0.5008191277    1.9873206473   -1.0251956789
 H   -0.6058326547    2.1076725028    0.7379771954
 H    0.4859964644   -0.2943150083   -0.8322470751
 H    0.3483177082    0.1539096159    2.2047771743
 H    0.6815658004   -1.3970620318    1.4087564940
 H    2.7270233672   -0.3819792722    0.2840888423
 H   -1.3509200818   -1.5489518861    0.1400468032
 H   -2.9928579281    0.4053200336    0.8028839219
 H   -1.6910500268   -0.5064316587   -2.1449134072