14

 N    0.0995428983    1.4060269075    0.0784171110
 C   -0.0025234358    0.0251638779    0.0155709540
 C   -1.1343315239   -0.7725688294    0.0160546330
 N   -2.4576098431   -0.2650338312   -0.0098091495
 C   -0.6184477413   -2.0994756427    0.0187212811
 N    0.7160752793   -2.1270930435    0.0127340647
 N    1.0595021307   -0.8205792251    0.0267926156
 C   -1.3916493435   -3.2924482548    0.0046384768
 N   -2.0837917516   -4.2203360717   -0.0073951135
 H    0.7617750261    1.8064021650   -0.5751453980
 H   -0.8181787112    1.8173031634   -0.0567207156
 H   -2.9209667294   -0.3713848398    0.8881327185
 H   -3.0287084758   -0.7519894063   -0.6933102153
 H    2.0360250512   -0.5801155793    0.0645070073