18

 C   -1.6657579675   -1.0412117522    2.7331041598
 C   -0.8439598570   -1.0712653418    1.4709417478
 O   -0.6989822797    0.1374910052    0.7027969278
 C    0.4774494963   -0.4644903160    1.2361729246
 C    1.3520365500    0.3775650471    2.1629895163
 C    2.3315544299   -0.5129046787    2.9355892083
 O    2.1469885120    1.2426741677    1.3560681786
 C    0.5769297426    1.2134115659    3.1094472995
 N    0.0262476215    1.9034032928    3.8547850016
 H   -1.4722871268   -0.1619615567    3.3449402581
 H   -2.7292537349   -1.0516571361    2.4732781756
 H   -1.4625635000   -1.9398082130    3.3260975621
 H   -1.0513743947   -1.9385033467    0.8392592530
 H    1.1169877522   -0.9384100501    0.4873097706
 H    2.8967833897   -1.1219154512    2.2255496273
 H    3.0307154477    0.1097708016    3.4967835204
 H    1.7967050974   -1.1674358841    3.6271621362
 H    1.5487212513    1.7836915164    0.8252255722