15

 N   -0.0094577698    1.3213632301    0.0097878541
 C    1.1195414469    2.0725328307    0.0029079960
 C    2.3576678809    1.4671125965   -0.0127929691
 C    2.4710137935    0.0628083113   -0.0219294802
 C    1.3258621620   -0.7107710775   -0.0150189382
 C    0.9697821954   -2.0859265089   -0.0193278926
 C   -0.4148974121   -2.1007606136   -0.0057736065
 N   -1.0052367504   -0.8504986539    0.0072352990
 C    0.0317388097   -0.0368175136    0.0016271935
 H   -0.9209063983    1.7603023897    0.0213064398
 H    0.9799269528    3.1447725877    0.0104101929
 H    3.2412294663    2.0923132020   -0.0179597970
 H    3.4567679795   -0.3926197241   -0.0342716030
 H    1.6364142237   -2.9343805285   -0.0307435542
 H   -1.0499587501   -2.9783589779   -0.0045144644