25

 C   -0.1549449498    1.3746116038    0.0641779307
 O   -0.1102710976   -0.0277791852   -0.0201347462
 C    0.6975189669   -0.4910545087   -1.0844693237
 C    0.6416500323   -2.0051533964   -1.0930242648
 C   -0.6724968994   -2.7109068563   -1.5139658304
 C    0.1771554976   -3.7866862863   -2.2398771746
 C    1.4095400112   -2.8248958283   -2.1923909366
 C    1.5853301524   -2.0756305242   -3.5182615152
 C    2.7330543672   -3.4432172435   -1.7503159154
 H    0.8437723362    1.8079883254    0.2364812775
 H   -0.5681640877    1.8285281927   -0.8512481058
 H   -0.8006097304    1.6335847326    0.9072650501
 H    0.3350618527   -0.0763852465   -2.0403331603
 H    1.7375333264   -0.1398901576   -0.9553565808
 H    0.9509835315   -2.3564977069   -0.1022881108
 H   -1.3364023019   -3.0455327822   -0.7148040285
 H   -1.2578226628   -2.1020965983   -2.2101989983
 H    0.3322138574   -4.6759069625   -1.6213046155
 H   -0.1545656561   -4.1098700307   -3.2307725839
 H    0.6439776143   -1.6502279053   -3.8802670196
 H    2.3107432008   -1.2587712715   -3.4296469884
 H    1.9534796551   -2.7606731599   -4.2906091545
 H    3.1155632227   -4.1391364533   -2.5066299026
 H    3.5001413281   -2.6753204948   -1.5925523764
 H    2.6180042229   -3.9980927262   -0.8131959859