16

 C   -0.0309515074    1.5375443500   -0.0199999987
 C    0.0444572432    0.0128925446    0.0384308456
 O    0.7731784432   -0.4759183288   -1.0919809144
 C    1.8405193385   -1.2381312342   -0.6732098220
 O    2.6011768773   -1.7545456082   -1.4420323934
 C    1.8124751001   -1.2598264585    0.8043112474
 C    0.7745481017   -0.5428939550    1.2419982324
 C    0.3273230360   -0.2816007210    2.6407619461
 H    0.9704518371    1.9720145379    0.0475116978
 H   -0.4841986159    1.8505682458   -0.9634797569
 H   -0.6413172330    1.9253820377    0.8010698323
 H   -0.9711767194   -0.4058138498   -0.0141472656
 H    2.5486372507   -1.7978066462    1.3841595421
 H    0.9527223262   -0.8085052924    3.3645028296
 H    0.3630819704    0.7895432123    2.8724692206
 H   -0.7121645787   -0.5995292442    2.7864385771