18

 O   -0.0108283176   -0.0322339895   -0.0215796360
 C   -0.0162981149    1.1731208245    0.0265757565
 C   -1.2800632624    2.0915065163    0.1432370037
 C   -0.6194763919    3.4080145681    0.4580976768
 C   -0.5927448500    4.9493081629    0.2373150508
 C    0.8316074424    4.5613602122    0.8051737901
 C    0.0962557042    3.6750080147    1.8281402195
 C    0.7694582332    3.3689359229   -0.2131051904
 N    1.1178964707    1.9845660303   -0.0194676799
 H   -1.7993009822    2.0745861930   -0.8219705175
 H   -1.9564940450    1.6972878018    0.9037548077
 H   -0.6368012780    5.2996392314   -0.7975592650
 H   -1.2114273400    5.5623649601    0.8962593065
 H    1.6591413045    5.2485285490    0.9874270953
 H   -0.5014862701    4.1959066828    2.5799585594
 H    0.6566241603    2.8468379162    2.2618881654
 H    0.8234226344    3.6751078274   -1.2652946772
 H    1.9877529424    1.5613073160   -0.3056335159