17

 C   -0.2271374262    1.5975321263    0.2579219590
 C    0.0065066140    0.1047091753    0.0678873663
 C   -1.2879844182   -0.6937152190   -0.1621639477
 C   -1.9634559535   -0.3015956676   -1.4633218867
 O   -3.0841611325    0.1318604413   -1.5402751885
 O    0.9890909600   -0.1741099387   -0.9775792543
 C    1.9312473699   -0.7951973603   -0.0813963893
 C    0.9687483037   -0.5450576641    1.0846755242
 O    0.9535956104   -0.7538510033    2.2576625663
 H    0.7214412625    2.1229353260    0.3941854316
 H   -0.7350199236    2.0225913652   -0.6129295159
 H   -0.8526863469    1.7695822170    1.1388095282
 H   -1.0390140576   -1.7613941102   -0.2203481657
 H   -1.9839386539   -0.5385882116    0.6662918580
 H   -1.3329642297   -0.4439800929   -2.3665307685
 H    2.1229545665   -1.8497980191   -0.3157901234
 H    2.8867732451   -0.2593387045   -0.0229590436