23

 C    0.0174634948    1.5726648422   -0.2216724304
 C    0.0275723279    0.0641967355   -0.1126068704
 C    1.3305396174   -0.7197698467   -0.1171936752
 C    1.4330224960   -2.0222600017   -0.8769110125
 O    2.5345018298    0.0089305768   -0.0757076550
 C    0.5227576177   -0.6160533774    1.1448731445
 C    1.0234283922    0.0435981076    2.4390450191
 C    0.6418502017   -1.2604112434    3.2010235266
 C   -0.1064860870   -1.7733654581    1.9351341697
 H    0.9303365344    1.9987556871    0.2014712982
 H   -0.0509210148    1.8958668548   -1.2670703152
 H   -0.8371916880    2.0044542995    0.3110782672
 H   -0.8058058324   -0.4343039923   -0.6064391349
 H    1.6777595951   -1.8403505164   -1.9312886560
 H    2.2199268578   -2.6568738677   -0.4549716770
 H    0.4906100448   -2.5760042691   -0.8493614724
 H    2.7314301161    0.3087650868   -0.9703010373
 H    2.0764470996    0.3303095395    2.4495500770
 H    0.4233472725    0.9077762783    2.7417755914
 H    1.5139403251   -1.8705463735    3.4484528607
 H    0.0393215658   -1.1386823247    4.1038089149
 H   -1.1950247245   -1.6873073661    2.0170054856
 H    0.1331314480   -2.7880888011    1.6048890514