15

 C    0.0954514667   -1.1946927466    0.1664194380
 C    0.0655660041    0.0053649350    0.1107379273
 C    0.0288561399    1.4524630154    0.0156958269
 N   -0.3149743384    2.1940486091    1.2758514000
 C    0.8450476944    3.1035391233    1.1069054641
 C    2.0787867398    2.5855234930    1.8662742156
 O    2.4322066136    1.7185534701    0.7529798430
 C    1.3777872934    2.2389528031   -0.0587378825
 H    0.1326507381   -2.2540719832    0.2279575427
 H   -0.6048159776    1.7512891544   -0.8315318695
 H   -1.2142716754    2.6576545980    1.2248742831
 H    0.6433045051    4.1744865113    1.0755297725
 H    2.8661978383    3.3277693161    2.0480611628
 H    1.8595536372    2.0251836983    2.7799465743
 H    1.7159720509    2.5657957927   -1.0442606683