18

 C    0.7641184483    1.6140209984    0.5359001770
 C    0.2320677653    0.2086004704    0.3883632468
 O   -1.1613207886    0.1022884203    0.2611229447
 C    1.0716142379   -0.8381539888   -0.3306804083
 C    0.8294905718   -0.9436866557    1.1478462551
 O    1.9489539530   -0.7737772992    1.9776475897
 C    1.6476255962   -0.7189405420    3.3512340593
 C    1.0058245354    0.5390791472    3.7797440565
 N    0.5139042267    1.5255117185    4.1256679219
 H    1.8326844831    1.6063898906    0.7634824914
 H    0.6196395787    2.1779507204   -0.3936119401
 H    0.2428148073    2.1337911554    1.3437299372
 H   -1.4123140586    0.4962927060   -0.5821750792
 H    0.5696661782   -1.5554404588   -0.9699852282
 H    2.0697101444   -0.5489891067   -0.6419917757
 H    0.1297583559   -1.7056051961    1.4904064254
 H    0.9995663375   -1.5547278231    3.6544722013
 H    2.5973553475   -0.8202997068    3.8848672154