18

 C   -0.0359319560    1.5027494919   -0.0514464422
 C   -0.0388616745   -0.0155877625    0.0184992533
 C   -1.3501651357   -0.7371103490    0.4595098377
 C   -0.5147092208   -1.6652935531    1.3913387862
 C    0.7222615948   -0.7592674905    1.1620544709
 O    1.8666196047   -1.3778908322    0.5880629881
 C    1.7741965746   -1.3197702475   -0.7819905103
 O    2.5864755661   -1.7992974458   -1.5213609368
 N    0.6163259204   -0.6490248010   -1.1101400528
 H    0.9812312702    1.8853990901   -0.1831519380
 H   -0.6456974505    1.8578029020   -0.8906033910
 H   -0.4525795547    1.9343163306    0.8638739301
 H   -2.0195041951   -0.0709756698    1.0101721295
 H   -1.9125146668   -1.2221086614   -0.3401764176
 H   -0.8571877489   -1.7559985941    2.4235785810
 H   -0.3540689187   -2.6657755599    0.9853826389
 H    1.0390718077   -0.1590714448    2.0164324497
 H    0.4978652932   -0.3434889932   -2.0620097467