18

 O    0.4347699613   -0.2533873053    0.3331726693
 C    0.2575742108    0.9439945044    0.4339957644
 N    1.1295339657    1.8814776556    0.0069761043
 C    2.4334796356    1.7291026879   -0.6323311766
 C    2.5458654682    3.2868261387   -0.6714989415
 C    1.1507822634    3.3454892109    0.0324812593
 C    3.6933220063    3.8793108372    0.0936386474
 C    4.8912700080    4.4035890895   -0.5745940517
 O    3.8960960810    5.2860858976   -0.0525864633
 H   -0.6476018079    1.3963194769    0.8900898227
 H    3.1734927253    1.2192228316   -0.0048528712
 H    2.3966885021    1.2292688200   -1.6049759616
 H    2.5267152840    3.7005249621   -1.6809162915
 H    0.3551845500    3.8214267030   -0.5499899086
 H    1.1629645229    3.7798429127    1.0390194800
 H    3.8006385435    3.5199963547    1.1199214781
 H    5.8450088867    4.4088364978   -0.0494910100
 H    4.9591537228    4.3668497148   -1.6612118296