18

 C   -0.0605572373    1.4685166846    0.0347754345
 C    1.3155436656    0.8788697759    0.0692872156
 O    1.9367891387    0.9431112519    1.3144044854
 C    2.7766926778   -0.1523827444    1.6428996857
 C    2.1564313639   -1.5431930912    1.3797982087
 C    0.6877274402   -1.6245167118    1.7226318118
 C   -0.2351047865   -0.9400559608    1.0451743170
 C    0.1183526397   -0.0367730579   -0.0847221479
 H   -0.4280401045    1.8519550474    0.9799491917
 H   -0.3709578801    2.0236244560   -0.8432069575
 H    1.9769379061    1.0234581157   -0.7862671589
 H    3.7345952858   -0.0810670800    1.1035048670
 H    2.9867798174   -0.0254258171    2.7094816653
 H    2.2930128935   -1.7980067524    0.3226036606
 H    2.7353054777   -2.2779340713    1.9488006059
 H    0.3882608489   -2.2633589197    2.5493416869
 H   -1.2879559229   -1.0363839024    1.3031899375
 H   -0.0559075642   -0.4409815324   -1.0815552393