17

 O   -0.0081292914   -0.0060100385   -0.3384916805
 C    0.0234165044    1.1611475803   -0.0780514166
 O   -1.1076250038    1.8702018738    0.2199826790
 C   -0.8060371941    3.2352439941    0.5223809365
 C   -0.4197116625    3.4986584601    2.0050095586
 C    1.0761144053    3.6010201402    1.6048574438
 C    1.7981205883    2.2352049954    1.4625047634
 C    1.2320288242    2.0786135352    0.0059462105
 C    0.6629863731    3.5116436441    0.0919148479
 H   -1.6081810202    3.8457593779    0.1083697472
 H   -0.8189032133    4.4536114179    2.3569056812
 H   -0.7011701529    2.7153076796    2.7137453183
 H    1.6505606084    4.4228340517    2.0305193033
 H    2.8844073902    2.3450669636    1.4444898495
 H    1.5396663941    1.4513249961    2.1798398280
 H    1.9622974408    1.8235923429   -0.7595324200
 H    0.8798979295    4.2483916857   -0.6786138302