18

 C   -0.4019271171    1.3179156449   -0.0446113951
 C    0.0432760344   -0.1282486019   -0.1291439550
 O    1.1069647781   -0.2202764732   -1.0311954196
 C    1.1975456629   -1.4503949449   -1.7184519447
 C    1.2191086629   -2.6764189499   -0.8619311892
 C    1.0441550793   -2.7949321908    0.4574600343
 C    0.7907648620   -1.7807228268    1.4952771600
 N    0.9123139668   -2.1347385376    2.7132381394
 O    0.4473933731   -0.4960531348    1.1877140569
 H    0.4475021726    1.9405531846    0.2468161265
 H   -0.7677342615    1.6499724363   -1.0187120199
 H   -1.1956750616    1.4279982936    0.6971088191
 H   -0.7794543919   -0.7872737538   -0.4451412894
 H    0.3750914394   -1.5442757583   -2.4511584106
 H    2.1231223359   -1.3973698249   -2.3045211993
 H    1.4009300182   -3.5902689850   -1.4255175189
 H    1.1228953493   -3.7812353784    0.9014320597
 H    0.7102666873   -1.3396087689    3.3229719358