19

 O   -0.1719586017    1.4204465913    0.1078537940
 C   -0.0000122940    0.0076836838    0.0278931951
 C    0.7463864030   -0.5525081294    1.2461855432
 O    0.7805198359   -1.9645674390    1.2059945860
 C   -0.5236457236   -2.5243962112    1.2871787109
 C   -1.3867463407   -2.1072718406    0.0858905395
 O   -2.6966593314   -2.6273335199    0.1918174216
 C   -1.4131333219   -0.5792856222   -0.0445234900
 O   -2.2061354514   -0.1001650709    1.0366038849
 H    0.6882301358    1.8330902678    0.2337923227
 H    0.5455837379   -0.2724394530   -0.8854547014
 H    1.7882464937   -0.2132516978    1.2519824683
 H    0.2558794935   -0.1897187621    2.1623568919
 H   -0.4011766532   -3.6095317852    1.3021445489
 H   -1.0224716206   -2.2144237451    2.2177856121
 H   -0.9470341369   -2.5297284578   -0.8247198190
 H   -3.1728444429   -2.0303888757    0.7833183428
 H   -1.8765632558   -0.2975436165   -1.0016418928
 H   -2.0706169158    0.8542762235    1.0730973311