13

 C   -0.0033414673    1.4245093305    0.0662591862
 N    0.0326532288   -0.0223037679   -0.0198407496
 C   -0.1032965019   -0.7895477792   -1.1178600110
 C    0.0030469338   -2.1092633305   -0.6972187185
 C    0.2060668340   -2.0117387439    0.7032276208
 N    0.2226063842   -0.7499728990    1.1035380214
 C   -0.0751066673   -3.2747934075   -1.4938506938
 N   -0.1379512670   -4.2344966746   -2.1395645146
 H    0.9424568471    1.7970514539    0.4663408052
 H   -0.1639880023    1.8342252577   -0.9316227337
 H   -0.8163433933    1.7379030182    0.7251993576
 H   -0.2618523205   -0.3721487917   -2.0989211559
 H    0.3373785417   -2.8156993762    1.4110786560