21

 O   -0.2693165116    1.4963216181   -0.2976857764
 C    0.0071597892    0.1209823540   -0.0432035232
 C   -1.3629912523   -0.5717122031    0.0134965406
 C   -1.4509305513   -1.8503599708    0.8659058395
 C   -0.2544967371   -2.8303741400    0.7503732446
 C    0.3164560615   -2.8897079668   -0.6613071611
 O   -0.0904338850   -3.6720490851   -1.4891777285
 C    1.4223997618   -1.8840656581   -0.9694986551
 C    0.9110351734   -0.4386415877   -1.1552061013
 H    0.5690109123    1.9526062686   -0.4234371386
 H    0.5141315239    0.0180966595    0.9327513134
 H   -2.0771028640    0.1596390735    0.4032041871
 H   -1.6781099046   -0.7893133627   -1.0143960512
 H   -1.5632692372   -1.5832692847    1.9223389263
 H   -2.3653767074   -2.3802632116    0.5824523471
 H    0.5360377781   -2.5226932054    1.4425144070
 H   -0.5786048628   -3.8354526310    1.0323517553
 H    2.1502577369   -1.9063343493   -0.1489115463
 H    1.9269190658   -2.2071364675   -1.8833773753
 H    0.3571916106   -0.3636267343   -2.0981792971
 H    1.7901721899    0.2116081244   -1.2548302969