15

 C   -0.0247108819    1.3964539389   -0.0834856684
 N    0.0131673980   -0.0425009564    0.0013152978
 C   -1.1641833640   -0.8764757115   -0.0104955754
 C   -0.5913298518   -2.2961475882    0.0095783609
 O   -1.1929727567   -3.3402313554    0.0302276425
 N    0.7752670858   -2.1235383036   -0.0037841642
 C    1.1773911901   -0.7732661858   -0.0239681988
 N    2.3501656545   -0.2787682282   -0.0566531840
 H    1.0027998637    1.7602602377   -0.0595475188
 H   -0.5012620832    1.7314961249   -1.0146295526
 H   -0.5782565420    1.8259170452    0.7607191297
 H   -1.8119869258   -0.7204823581    0.8627235870
 H   -1.7815216288   -0.7382443581   -0.9098627104
 H    1.4232485012   -2.8942084329    0.0048330528
 H    3.0656186109   -0.9996755183   -0.0641353180