23

 C    0.0250296716    1.4867558039    0.0702979483
 C    0.0848342834   -0.0476786933    0.1178538789
 C    0.7554604503   -0.5316580675    1.4126212807
 C   -1.3214273967   -0.6370011345   -0.0028826957
 C   -2.1295876893   -0.6315159313   -1.3468850953
 C   -1.2387260361   -1.8137703825   -1.8235522805
 C   -1.5812493027   -2.1457675684   -0.3433489864
 C   -3.0437411089   -1.7348761972   -0.7181271676
 O   -4.0152848843   -1.4490556729    0.2443045704
 H    1.0256783504    1.9224787976    0.1585350820
 H   -0.4155832938    1.8426888110   -0.8662907905
 H   -0.5810494061    1.8814953815    0.8950258161
 H    0.7031902017   -0.3827480379   -0.7223768176
 H    0.8390113940   -1.6227136640    1.4381532171
 H    1.7627422529   -0.1144384957    1.5138483093
 H    0.1791303849   -0.2207606642    2.2926765424
 H   -1.8922370646   -0.2696372914    0.8628879442
 H   -2.4451246442    0.2360084778   -1.9292304844
 H   -1.6715804533   -2.4730246278   -2.5816116842
 H   -0.1988176006   -1.5910108637   -2.0554142996
 H   -1.2659530896   -3.0201669568    0.2287585782
 H   -3.5314488817   -2.3916205294   -1.4428247509
 H   -3.6415574674   -0.8704830233    0.9164966050