15

 C    0.0558134826   -1.1456596440   -0.0512621148
 C    0.0327298813    0.0570972604   -0.0008884866
 C   -0.0294507896    1.4730667091    0.0809057900
 C   -1.1065053037    2.3694821267    0.6891549493
 N   -0.5357045408    3.5414767110   -0.0764741794
 C    0.8157995402    3.7056946259    0.5958010544
 C    1.2387350734    2.3765207620   -0.0011163552
 C    0.1435745450    2.5145454964   -1.0067536865
 H    0.0804579367   -2.2059228263   -0.0987760299
 H   -2.1003748661    2.1283058467    0.3058320532
 H   -1.1456252575    2.5045575685    1.7754984801
 H    1.3422762430    4.5508119380    0.1447088769
 H    0.7735638873    3.8309720300    1.6830329477
 H    2.2161891309    1.9281636136   -0.1242433861
 H    0.0736214575    2.4743070522   -2.0841555629