17

 O   -0.5302795592    0.6506729627    0.9002962722
 C    0.0953664210    0.9122317069   -0.0944592012
 C    1.3051787537    1.8256831454   -0.1155317024
 C    1.2415283602    2.9053965092   -1.2274840282
 C    2.4425082203    3.8781400672   -1.0944546033
 C    2.3837541098    5.0421871870   -2.0640133091
 O    2.5405483135    6.1916369535   -1.7422010955
 C    1.1921977593    2.2981301070   -2.5579868334
 C    1.1806025719    1.7857064309   -3.6456781074
 H   -0.1820242214    0.4824230137   -1.0812001371
 H    1.3975546050    2.2949324578    0.8674071682
 H    2.1943364470    1.2030197683   -0.2851865814
 H    0.3214695456    3.4870334401   -1.0769264430
 H    2.4977028640    4.2799739833   -0.0793776390
 H    3.3670796040    3.3194348576   -1.2947323647
 H    2.1874471162    4.7597010975   -3.1208974511
 H    1.1547460689    1.3401626521   -4.6098747238