15

 O   -0.2193504695    0.0524575638    0.2386512128
 C   -0.0295793022    1.2073616192   -0.0532846963
 C    1.2880763865    1.8696498911   -0.0610225480
 N    1.3384227261    3.3375816833    0.2481407416
 C    1.6288459931    2.9036222938   -1.1108248141
 C    3.1149960828    2.7451504775   -1.4237493629
 C    3.5658295864    1.6585316225   -0.4673506993
 C    2.5607682213    1.1621263416    0.2551598320
 H   -0.8722523537    1.8827005030   -0.3414872679
 H    0.3851911770    3.7025698106    0.2868019801
 H    0.9281969227    3.1501600665   -1.9026956770
 H    3.2697484881    2.4553711325   -2.4707147514
 H    3.6549456104    3.6864079812   -1.2672014148
 H    4.6033862086    1.3551711640   -0.3884076122
 H    2.6168013125    0.3709469594    0.9903491873