21

 C   -0.2747190804    1.5284840959    0.0095972967
 C    0.0449389846    0.0363775011    0.0143533526
 C    0.9581986125   -0.5047320851   -1.1194974459
 C    2.2884524180    0.2960955776   -1.1458541944
 C    2.8227700861    0.5753559546    0.2414956494
 C    2.1602005404    0.2244552627    1.3457000353
 C    0.8363508308   -0.5208650969    1.2319936864
 C    1.1450011385   -1.9316910758    0.7247230963
 C    1.2166552352   -1.9140782339   -0.6072805221
 H    0.6184320847    2.1491576088    0.1130577609
 H   -0.7799743159    1.8098359973   -0.9213710711
 H   -0.9496802106    1.7791541996    0.8356635070
 H   -0.8988247925   -0.5190150514   -0.0395741692
 H    0.4844684593   -0.4742267853   -2.1058773982
 H    3.0431818631   -0.2486718627   -1.7310928068
 H    2.1397210981    1.2477387851   -1.6759536898
 H    3.7834657436    1.0807843196    0.3083747380
 H    2.5665644826    0.4306333317    2.3317582989
 H    0.2754449701   -0.4931901783    2.1698800390
 H    1.3614319313   -2.7704574724    1.3760087656
 H    1.5011867706   -2.7421788222   -1.2466528285