19

 C    0.1481056073    1.5347008006    0.0319091534
 C   -0.0091944116    0.0439322804   -0.0593462426
 C    0.3176215192   -0.8153880697   -1.3076678887
 C   -0.4512752046   -1.8884876924   -0.4804122421
 C    0.4939161571   -2.0103344305    0.7183531401
 O    0.7387156358   -0.6129930495    0.9885455261
 C   -1.3889400714   -0.7061578875   -0.0203010854
 C   -2.1571912347   -0.7675701356    1.2664584994
 O   -3.3604260231   -0.6826189709    1.3320990583
 H    1.2008308648    1.8117684727   -0.0800954055
 H   -0.4289170806    2.0302414359   -0.7533585217
 H   -0.1982189207    1.9017361085    1.0028062510
 H   -0.2189002837   -0.4989459037   -2.2031669193
 H    1.3746701399   -0.9932123847   -1.5223550583
 H   -0.8555755190   -2.8010311268   -0.9148746208
 H    0.0549230749   -2.4951039736    1.5967616847
 H    1.4320361771   -2.5189732151    0.4673985054
 H   -2.0576857264   -0.4020593757   -0.8273110904
 H   -1.5437597803   -0.8791833821    2.1853136963