21

 C   -0.7696759694    1.2564770072   -0.0192069593
 C    0.1823881577    0.0626540739    0.0209355814
 C    1.1525005555   -0.0345802418   -1.1826689892
 C    2.3894435715   -0.6880188084   -0.6113023361
 C    3.4767367136   -1.2252966667   -1.4815513400
 C    2.3664676094   -0.6592979287    0.7359187937
 C    1.1114107638    0.0203291721    1.2598117695
 C    3.3777224487   -1.1396501300    1.6019465769
 C    4.2122073882   -1.5400514369    2.3755269997
 H   -0.2142241948    2.2015502368   -0.0280169560
 H   -1.4010016471    1.2326516485   -0.9140185247
 H   -1.4314241826    1.2680181428    0.8534452333
 H   -0.4135934078   -0.8584925466    0.0310292994
 H    0.7279629871   -0.5954163962   -2.0244771851
 H    1.4027173113    0.9627641832   -1.5788455750
 H    3.8845134903   -0.4382550156   -2.1295668760
 H    4.2944825155   -1.6424363958   -0.8895013664
 H    3.0946743298   -2.0079219571   -2.1496226959
 H    1.3501587372    1.0322073072    1.6183928135
 H    0.6653253536   -0.5120715009    2.1060859152
 H    4.9532615683   -1.8942774470    3.0479584810