17

 O    0.1338127684    1.3797975097   -0.0033886386
 C    0.0011841636   -0.0263395093    0.0888424121
 C   -1.4177618120   -0.5079733519    0.1211199297
 C   -2.5188167597    0.2495449124    0.1831048871
 C   -3.7481055239   -0.5880423377    0.0843081734
 N   -3.8321262371   -1.3234110246   -1.2144617725
 C   -3.2821198192   -1.9972908759   -0.0185853065
 C   -1.7584207171   -1.9899106679    0.0413246952
 H   -0.3197173579    1.6545141758   -0.8076877889
 H    0.5412125805   -0.5379310256   -0.7273293986
 H    0.5167036980   -0.3145418683    1.0153963729
 H   -2.5288902129    1.3292602350    0.2611900859
 H   -4.6701523029   -0.3035841467    0.5797896815
 H   -4.7914914958   -1.6438632187   -1.3408737512
 H   -3.8357764250   -2.8223499440    0.4160304393
 H   -1.3143696621   -2.4658153335   -0.8414854491
 H   -1.3874828450   -2.5351084588    0.9200701982