19

 C    0.1674219973    1.5299501795    0.0492243969
 N    1.1756411634    0.4833591152   -0.2003132414
 C   -0.2263319890    0.1026452701    0.0468983916
 C   -0.4640935287   -0.6548711246    1.3276038891
 O   -1.8396129021   -0.5031442876    1.6924965424
 C   -2.3200052884   -1.6852054139    2.3234635640
 C   -1.4158921868   -2.8028994773    1.8492200087
 N   -1.2603965836   -2.8115781829    0.3795165525
 C   -0.2423344026   -2.1541270496    1.2289414536
 H    0.2834717973    2.0562278095    0.9929139867
 H   -0.1595774540    2.1525594868   -0.7789876202
 H    1.3769340001    0.4266978228   -1.1946456074
 H   -0.8212546151   -0.2596107049   -0.7871820428
 H    0.1994445111   -0.2516507931    2.1098316884
 H   -2.2644992190   -1.6061649650    3.4213493615
 H   -3.3683075804   -1.8130722666    2.0335755519
 H   -1.3482657868   -3.7286367525    2.4103834671
 H   -0.9086464657   -3.7214049481    0.0904360997
 H    0.7627390130   -2.5548621076    1.2907473775