21

 C    0.0095196066    1.5448158934    0.0245217641
 C   -0.0676642596    0.0512379775    0.2878951716
 O   -1.2458035873   -0.4537162665   -0.3241855228
 C   -1.3881979594   -1.8342472125   -0.2180657998
 C   -2.0828062501   -2.4997686622    1.0129559243
 C   -3.4196304337   -1.8533652707    0.5963555578
 C   -2.7404175071   -2.4408183708   -0.6733636840
 C   -3.2801561321   -2.6323470199   -2.0546385310
 O   -2.3746879876   -3.6442810786    0.1264586311
 H    0.9101141691    1.9658014226    0.4813103343
 H    0.0388586785    1.7434012997   -1.0505452076
 H   -0.8627375546    2.0546813136    0.4433406437
 H    0.8156671983   -0.4628896114   -0.1241794983
 H   -0.0847858176   -0.1515689310    1.3703382050
 H   -0.5072377272   -2.3854290706   -0.5722436849
 H   -1.6969940927   -2.7266432000    2.0065260970
 H   -4.3121682644   -2.3870457152    0.9265265793
 H   -3.5054850691   -0.7680699345    0.6637721980
 H   -3.4468801683   -1.6589042324   -2.5260727700
 H   -2.5720964743   -3.1982509224   -2.6677371546
 H   -4.2302310974   -3.1741414281   -2.0282927630