20

 C   -0.7305626684   -0.5481552698   -1.1689763222
 C   -0.9230290727    0.8675995909   -0.7520492851
 N   -0.0416184716   -0.0239232193    0.0033825915
 C   -0.4801497597   -0.4315656902    1.3118403588
 C   -0.4993598089   -1.8903452444    1.7050411286
 C   -1.7842139647   -1.0825051298    1.7141954188
 O   -2.2532341579   -0.5553068173    2.9256081401
 C   -1.1638050471    0.1290857513    3.5532398372
 C   -0.1955946153    0.5596495131    2.4336145070
 H   -1.5722661049   -1.2231564004   -1.0278417516
 H   -0.0917150502   -0.7952833094   -2.0120314117
 H   -0.4316887221    1.6744897979   -1.2876351741
 H   -1.8851800745    1.1222157054   -0.3118267572
 H   -0.3974293070   -2.6065736352    0.8955942944
 H   -0.0470111767   -2.2080475476    2.6390323616
 H   -2.5942461157   -1.3353933521    1.0402253969
 H   -1.5774347865    0.9684007513    4.1184436652
 H   -0.6639136141   -0.5418425891    4.2653920503
 H    0.8463437610    0.5523300591    2.7653250258
 H   -0.4272912427    1.5674194055    2.0720519156