20

 C   -0.0674576384    1.5600997622    0.0711357498
 C    0.0037643584    0.0435376787   -0.0391812392
 C    1.0929396969   -0.5878034598   -0.9825197558
 C    1.6694457049   -1.3207187972    0.2396466727
 C    2.4355869250   -2.6028821197    0.2795471438
 O    2.0292574279   -0.2897282712    1.1815226633
 C    0.6560233509   -0.7230951683    1.1348559438
 C    0.0208982099   -1.1764111492    2.4093982473
 H    0.9085439925    1.9625631660    0.3564713532
 H   -0.3595878071    2.0121654895   -0.8827441611
 H   -0.8004703406    1.8724682565    0.8235138100
 H   -0.9817405190   -0.3770635643   -0.2677178526
 H    0.6679728498   -1.2547860203   -1.7373405721
 H    1.7829672460    0.1122985956   -1.4618731881
 H    3.4352657553   -2.4707093493   -0.1504500741
 H    2.5558182513   -2.9508578122    1.3091577743
 H    1.9235310488   -3.3801460843   -0.2972299511
 H   -0.2063113442   -0.3212194514    3.0565564177
 H   -0.9178411287   -1.7038084915    2.2097337989
 H    0.6887111302   -1.8447396097    2.9599201094