25

 C    0.4852560631    1.0889431145    0.4986402778
 C   -0.4716001886    0.4133023763   -0.5004869819
 C    0.2203343694   -0.2346720373   -1.6110288842
 C    0.8117921116   -0.7529865695   -2.5247909725
 C    1.5202819366   -1.3891537047   -3.6310929752
 C    1.9442769006   -2.8668862398   -3.3798562178
 C    0.6993247994   -3.7310646019   -3.1202861551
 C    2.6696201813   -3.3706575713   -4.6391828163
 C    2.8937086241   -2.9401573865   -2.1726713748
 H    1.1713459478    0.3574688826    0.9344793169
 H    1.0844019174    1.8577163766    0.0030510956
 H   -0.0779672591    1.5599674988    1.3100353238
 H   -1.0881194383   -0.3256875194    0.0276598800
 H   -1.1735931679    1.1596660372   -0.8948051586
 H    0.8908969844   -1.3544616657   -4.5309382090
 H    2.4189454583   -0.8037520998   -3.8692670123
 H    0.0171288670   -3.7090489060   -3.9777663132
 H    0.9811690188   -4.7748200593   -2.9447498826
 H    0.1492559004   -3.3741900130   -2.2448092610
 H    3.5610480879   -2.7700099132   -4.8525025903
 H    2.9908589130   -4.4100698031   -4.5138602217
 H    2.0171627132   -3.3274675648   -5.5185901923
 H    2.4103420864   -2.5563701338   -1.2696490817
 H    3.2012566916   -3.9740863565   -1.9828072322
 H    3.7999434918   -2.3486966003   -2.3461777714