17

 O    0.0048953008    1.3547241953   -0.0238719874
 N    0.0936793267   -0.0450826738   -0.0618702109
 C   -1.0481803878   -0.6026094106    0.0657300560
 C   -1.0954771948   -2.1025310678    0.0365469124
 C   -1.8271947282   -2.6126047368    1.2823863309
 N   -3.1160299840   -1.9484096122    1.4152925632
 C   -3.4215635461   -0.6665910551    1.0492334014
 O   -4.4975286347   -0.1629353962    1.3077309111
 C   -2.3556628249    0.1113874707    0.2742789346
 H    0.9287517203    1.6180358226   -0.0907315517
 H   -1.6460489788   -2.4346118340   -0.8538009415
 H   -0.0834560836   -2.5086941240   -0.0128402001
 H   -1.9997141922   -3.6904453977    1.2023783361
 H   -1.2004111383   -2.4467523857    2.1707916483
 H   -3.8330888515   -2.3907399680    1.9718769701
 H   -2.1956197283    1.0627843928    0.7863620744
 H   -2.8045646144    0.3729013303   -0.6928266469