11

 C    0.1088651711   -3.7558551498   -0.0199076979
 C    0.0651588987   -2.5487026389   -0.0125751245
 C    0.0173139073   -1.1938401212   -0.0043604389
 C   -0.0336605265    0.0178860956    0.0030950059
 C   -0.0920545466    1.4148889180    0.0116728764
 C   -1.1371443184    2.2989130110    0.0307626151
 N   -0.5962280598    3.5558986105    0.0304454764
 N    0.6624094831    3.4990378305    0.0130708020
 O    1.0464008388    2.1313693025    0.0002554161
 H    0.1476320135   -4.8176422952   -0.0263655016
 H   -2.1980677112    2.1212846070    0.0441471610