17

 O    0.1366690647    1.1975217971   -0.4208686787
 C   -0.0214172507   -0.1896357360   -0.1639288653
 C   -1.4832054831   -0.4399540426    0.2028926380
 C   -2.4250170796   -0.1001731521   -0.9820070179
 N   -2.5897908123   -1.3852801677   -1.6391180931
 C   -2.2978678919   -2.4767117850   -0.8663070447
 O   -2.4557522403   -3.6367897402   -1.1772583971
 C   -1.7486936643   -1.9343931232    0.4596147354
 H    1.0328976562    1.3480972884   -0.7344569930
 H    0.2461701327   -0.7937339980   -1.0457894977
 H    0.6204535894   -0.5164265132    0.6689537830
 H   -1.7223831449    0.1828062619    1.0683048104
 H   -3.3844483211    0.3000947744   -0.6258910921
 H   -1.9734189290    0.6436635174   -1.6434827146
 H   -3.0702200532   -1.5034435960   -2.5168332924
 H   -0.8640702881   -2.5004276531    0.7624051202
 H   -2.5107389645   -2.0913005622    1.2303498695