18

 C    0.4805016637    1.2308644597    0.3732535242
 C    0.1909007925   -0.2264099264    0.1325831036
 C    0.6254708718   -1.0965219821   -1.0869109507
 C   -0.2029908510   -2.0502275191   -0.1798086733
 C    0.5719411200   -1.4460586062    1.0281555566
 C   -1.2392239172   -0.9010654783   -0.0477522782
 C   -2.2320846470   -0.8557534267    1.0752568391
 O   -2.3243435274   -1.6548758161    1.9759777947
 H    1.5614876494    1.4041088537    0.4160686209
 H    0.0729832288    1.8548698175   -0.4296469525
 H    0.0505514337    1.5730335967    1.3206262920
 H    0.1971759326   -0.8337276592   -2.0589369186
 H    1.6955027862   -1.3093556712   -1.1631979877
 H   -0.4313349881   -3.1002902274   -0.3571276106
 H    1.6402655307   -1.6762870963    1.0737949480
 H    0.1009093887   -1.5241066157    2.0067081771
 H   -1.7383360836   -0.5915428398   -0.9754610815
 H   -2.9298363938    0.0139778270    1.0219184468