12

 C   -0.0169868012    1.4352453120    0.0190495834
 N   -0.0094120066   -0.0167868296    0.0034648811
 N    0.0755895198   -0.7059371602   -1.1319298402
 C    0.0937489107   -1.9737668548   -0.7316221819
 C    0.0184269449   -1.9950728814    0.6730567506
 N   -0.0449678815   -0.7270768606    1.1140966351
 C    0.0001758289   -3.1103839732    1.5498177041
 N   -0.0114100588   -4.0447188485    2.2320326328
 H    0.9847397991    1.8181615068   -0.1921576657
 H   -0.7104004937    1.7939350438   -0.7422741111
 H   -0.3358117634    1.7533851854    1.0100151678
 H    0.1524829717   -2.7908184296   -1.4316096059