14

 N    0.0734274148    1.4591642199    0.1965911622
 C    0.0077288828    0.0623096840    0.0712263221
 C   -1.1339222537   -0.6739934412    0.0088125811
 N   -1.0708311397   -2.0378844395   -0.0370618355
 C    0.1230450674   -2.7829083249   -0.0229239192
 O    0.0872186197   -3.9948647257   -0.0623240168
 N    1.2776254423   -2.0215639285    0.0328202934
 C    1.2087388785   -0.7272495991    0.0759753555
 O    2.3551977983   -0.0235871182    0.1195869259
 H    0.9638043878    1.8248682572   -0.1130352783
 H   -0.6856143229    1.9446537206   -0.2626963056
 H   -2.1227560795   -0.2312289698   -0.0044589901
 H   -1.9151262919   -2.5877328099   -0.0841281881
 H    3.0705606962   -0.6772988148    0.1070971133