16

 C   -0.1902118928    1.4549949117    0.0077336744
 C    0.0752953023   -0.0366565276   -0.0025382665
 C    0.9385191516   -0.5620924564   -1.1508111719
 C    2.1420093708   -0.4501454773   -0.2797177305
 N    1.2261943831   -0.4247822230    0.9392324283
 C    1.1848549780   -1.9192846215    0.8179200422
 O    1.0706510686   -2.7564453930    1.6567209874
 C    1.5809021156   -1.8566224717   -0.6173119297
 O    2.0039070194   -2.8200419213   -1.4859714958
 H    0.7254181299    2.0198517352   -0.1903733177
 H   -0.9305605692    1.7162639223   -0.7561717367
 H   -0.5778013139    1.7604741159    0.9835305637
 H   -0.8413669659   -0.5979099803    0.2172404387
 H    0.8587641968   -0.4198323455   -2.2232489572
 H    3.1474195649   -0.0636569898   -0.3388922236
 H    2.6296422908   -3.3920360777   -1.0256137251