20

 N   -0.0325018965    1.3025730706    0.1901081588
 C   -0.0223161322    0.0137527626   -0.2599884542
 O    0.9176216242   -0.4507573611   -0.8769777960
 C   -1.2838077146   -0.7873037034    0.0557622568
 C   -1.0068627343   -2.2893375543    0.1552391439
 C   -2.2733344316   -3.1371920528    0.0643444864
 O   -2.9709325756   -2.9269822423   -1.1729130142
 C   -2.0061664759   -4.6345915634    0.2309137663
 O   -3.1938039061   -5.3808327368    0.0797212816
 H    0.7265872356    1.9060248934   -0.0814355410
 H   -0.8411480133    1.7110878184    0.6243999955
 H   -1.7607342226   -0.4120305907    0.9686484109
 H   -1.9960160207   -0.6123816837   -0.7607926202
 H   -0.3138895531   -2.5636520737   -0.6495414108
 H   -0.4870861566   -2.5162194874    1.0938993131
 H   -2.9962443308   -2.8320701559    0.8311752420
 H   -2.3391302607   -3.0741975725   -1.8880798236
 H   -1.2361198084   -4.9441422802   -0.5003470856
 H   -1.6084441968   -4.8434032209    1.2302453434
 H   -3.6626716100   -4.9647179360   -0.6555905633