25

 O   -0.0214321233    1.4634456059   -0.0381171709
 C    0.0478664401    0.0479803396    0.0589413862
 C   -1.3649054957   -0.5044997534   -0.0726613309
 C   -1.4235501127   -2.0321367325    0.0166388783
 C   -2.8455167905   -2.5907263842   -0.1185913739
 C   -2.9152763294   -4.1083448601   -0.0186838213
 C   -2.6337606625   -4.7990630363    1.3493438529
 C   -3.7764168187   -5.8019708088    1.0359775355
 C   -4.3068352584   -4.8032632288   -0.0276005395
 H    0.8702749665    1.8139883162    0.0418363455
 H    0.6875647716   -0.3742725778   -0.7338751811
 H    0.4807197447   -0.2639349744    1.0240407962
 H   -1.9865852330   -0.0560732874    0.7122568956
 H   -1.7815928601   -0.1658950579   -1.0294487843
 H   -0.7882979516   -2.4707268364   -0.7658270905
 H   -0.9951763926   -2.3607305556    0.9735700918
 H   -3.4848885332   -2.1501201071    0.6596689972
 H   -3.2716462242   -2.2695513400   -1.0795780068
 H   -2.2774116879   -4.5571363113   -0.7909306014
 H   -1.6334310795   -5.2014635087    1.5281189591
 H   -2.8956140614   -4.1395329232    2.1843131054
 H   -3.3954139170   -6.7186110704    0.5762278465
 H   -4.4472403432   -6.0795657807    1.8524812567
 H   -5.0779865379   -4.1453275790    0.3874938911
 H   -4.6713131202   -5.2064411777   -0.9760347573