21

 C    0.0253819388    1.4675909115   -0.0239907237
 C    0.0000332912    0.0123686282   -0.0165632143
 C   -0.0253511404   -1.1940109004   -0.0147107406
 C   -0.0263089209   -2.6176257781    0.0209638938
 C   -0.4262054856   -3.4641909371   -1.1714420019
 C   -1.2105562361   -3.6140916821    0.0928372930
 C   -0.4420275665   -4.4885956736    1.0868133596
 C    0.7487979168   -3.4695148493    1.0562120194
 C    2.1488823989   -3.9530811307    0.7049603557
 H    0.8701831600    1.8508452448    0.5596490050
 H    0.1230359740    1.8632541448   -1.0414652536
 H   -0.8896189714    1.8889258273    0.4084082016
 H   -0.9117130430   -2.9085838642   -1.9661939309
 H    0.2195663560   -4.2680518917   -1.5176892741
 H   -2.2657075380   -3.3755385027    0.1442924013
 H   -0.9101832728   -4.5568615488    2.0707381573
 H   -0.2180933530   -5.5025740702    0.7367674891
 H    0.7792408036   -2.9231706559    2.0031492247
 H    2.1642378553   -4.5069687842   -0.2391971086
 H    2.8398384225   -3.1086350104    0.6088859303
 H    2.5382548505   -4.6176718673    1.4842638870