15

 O    0.0011254990   -0.0454023138    0.0503879980
 C    0.0243728738    1.1625782639    0.0979983442
 C    1.2667020928    1.9547648098    0.0515557537
 C    1.3319167733    3.2989438940    0.1057730135
 C    2.7553951466    3.7486700041   -0.0190494043
 O    3.1447429952    4.8880292542   -0.1116653521
 C    3.5918636663    2.4896118862   -0.0526861113
 C    3.4927395852    1.5981780569    1.1782860355
 C    2.6246124764    1.3323762844   -0.0297442311
 H   -0.9085502920    1.7609934306    0.1698261214
 H    0.5041680746    3.9880000932    0.2190843915
 H    4.5125283482    2.4906803054   -0.6209255758
 H    4.3320786073    0.9342634884    1.3546361626
 H    3.0223308165    1.9890309666    2.0741635934
 H    2.7635152667    0.4255731762   -0.6031287291