15

 N   -0.0782882949   -1.1219943637    0.3410182984
 C   -0.0148004243    0.0181277724    0.1702487601
 C    0.0500003709    1.4620078372   -0.0415997165
 C    1.4920218860    1.9982245266   -0.1217084989
 C    1.6431878928    3.5421841633   -0.0031466943
 C    2.4696863555    3.2160873548    1.2565173963
 O    2.2061463239    1.7963884851    1.1076883050
 C    2.2081812603    1.4178480579   -1.2705973843
 N    2.7715479231    0.9998546459   -2.1884157061
 H   -0.4860202255    1.7182618650   -0.9624427171
 H   -0.4513999100    1.9655517018    0.7908614685
 H    2.1758619109    4.0230408414   -0.8218827640
 H    0.6997218426    4.0594902680    0.1766606760
 H    3.5394092761    3.4340991249    1.1815325987
 H    2.0842633126    3.5971359893    2.2065126182