18

 C   -0.1649288029    1.5682796387    0.0415486705
 C   -0.0263934611    0.0634718425   -0.0625154809
 C    0.9014943784   -0.5833833782   -1.0901209354
 C    2.1308054880   -0.2754302998   -0.1850952455
 C    2.6236066099   -1.7212828458   -0.1575803925
 C    1.0900263306   -1.8064507083   -0.1218174300
 C    0.2437257500   -2.9511885740    0.0212911795
 C   -0.4577114352   -3.9230620801    0.1258244472
 N    1.0161178308   -0.5809643782    0.8607174617
 H    0.7912125841    2.0833132733   -0.0911288335
 H   -0.8564105022    1.9420241172   -0.7213324462
 H   -0.5648819911    1.8451399639    1.0224191590
 H   -1.0002622619   -0.4262433076    0.0546857850
 H    0.8550666886   -0.6167471878   -2.1843009673
 H    2.7074438746    0.6458202354   -0.1252917648
 H    3.1100280709   -2.1000827713   -1.0594177883
 H    3.1364185765   -2.0423110781    0.7523970170
 H   -1.0770341482   -4.7802211818    0.2241494545