18

 C   -0.0143069266    1.5169782112   -0.0161601122
 C    1.4206998576    2.0545397940    0.0448612271
 O    2.0924903206    1.7067752988    1.2551370283
 C    1.9416820639    0.3856809350    1.5665694429
 C    0.9935771151   -0.4451257287    1.0134619756
 C   -0.0320633496   -0.0273499727    0.0137960790
 N    1.1676478290   -1.6829290141    1.5979649075
 C    2.1995106712   -1.6306526598    2.5002783223
 C    2.7089666228   -0.3503540153    2.5074006410
 H   -0.5698122603    1.9086995170    0.8430914582
 H   -0.4999537466    1.8943484108   -0.9218153790
 H    1.9980599834    1.6693662097   -0.8102991258
 H    1.4317824213    3.1466758029    0.0034886220
 H   -1.0358699858   -0.3839541268    0.2795919792
 H    0.1808648487   -0.4278649890   -0.9885155681
 H    0.6223057302   -2.5005459058    1.3910838958
 H    2.4925117092   -2.5042407745    3.0596474270
 H    3.5263779060    0.0172122372    3.1065762693