19

 C    0.3529035465    1.6943524087   -0.1276384505
 C    0.1281796643    0.1908456743   -0.1275048320
 N    1.2332059360   -0.6230004167   -0.6604956832
 C    1.5176751881   -1.2958684570    0.4988616150
 O    2.3591828374   -2.1057081576    0.7969677441
 C    0.3371352624   -0.5769566573    1.2272535724
 N    0.5484310257    0.2106803777    2.4187445422
 C    1.1903783714   -0.4625171610    3.5494601571
 C    1.9120748334    0.5945021696    2.7915141392
 H    1.3242714623    1.9511657652    0.3016600819
 H    0.3117881504    2.0916005950   -1.1473914488
 H   -0.4242517592    2.1878974609    0.4628945160
 H   -0.8306999063   -0.0481479717   -0.6026533503
 H    1.6301667432   -0.6954842015   -1.5862847099
 H   -0.4801690358   -1.2780964838    1.4231313916
 H    0.7594126068   -0.2478412118    4.5234539733
 H    1.5328386984   -1.4833934325    3.4012129313
 H    2.7377017450    0.2692369258    2.1638789234
 H    2.0097411801    1.5956889736    3.2010758271