20

 C   -0.1831159575    1.3394693270    0.1664315999
 O    0.3576069427    0.0608892387   -0.0869693675
 C    0.8180903373   -0.5804474303    1.0537038173
 C   -0.2116175568   -1.4427381657    1.9104789900
 N   -0.1268707363   -2.4335315246    0.7845566897
 C    1.3220805205   -2.0420786596    0.7944154761
 C    1.8040948172   -2.3904676737    2.2183901792
 C    3.1339271697   -2.9534931461    2.5824509355
 C    0.7611057952   -1.9867194807    2.9607653014
 H    0.5457224957    1.9969327454    0.6663208604
 H   -0.4489875658    1.7750615195   -0.7992197067
 H   -1.0863156362    1.2871050469    0.7917487735
 H    1.4805802769    0.0696523583    1.6409277848
 H   -1.1965379827   -1.0849367505    2.2106751987
 H   -0.2530059334   -3.3878859258    1.1272418602
 H    1.9379353922   -2.3022678660   -0.0673238390
 H    3.9488094235   -2.2993514576    2.2466880119
 H    3.2312193608   -3.0838139379    3.6640438534
 H    3.3031080042   -3.9273628403    2.1052923555
 H    0.6479183728   -1.9613422571    4.0361431557