18

 O   -0.4793754525    1.6125195342    0.3099488116
 C   -0.1740486321    0.2654120763    0.1175438821
 C   -0.3125270889   -0.7905030540    1.1859530186
 C   -1.1988497353   -0.4567903693    2.3713718626
 N   -2.4581114402   -0.0133068278    1.7565959570
 C   -2.6203104797   -0.5084420475    0.3829001133
 C   -1.2034451480   -0.8214492838   -0.0592005839
 C   -3.4996702382    0.5241856757    2.4503554635
 O   -4.6024235223    0.7283165156    1.9882521890
 H   -1.3016105282    1.6743199566    0.8097445775
 H    0.7083350172    0.1868330542   -0.5090522922
 H    0.4841173389   -1.5080975564    1.3439030539
 H   -1.3443024962   -1.3473316308    2.9980307198
 H   -0.7891193863    0.3389548200    3.0038259744
 H   -3.2498727964   -1.4072285047    0.3574109010
 H   -3.1193425488    0.2560906904   -0.2200783733
 H   -1.0736296161   -1.5622699465   -0.8394255797
 H   -3.2211751568    0.7780869379    3.4929047646