18

 C    0.0090039826    1.4681405166   -0.0044278064
 C   -0.0252887294   -0.0299857619    0.0374279743
 C   -0.9723841860   -0.9460162600   -0.6620555439
 C   -1.1066146873   -2.0323401483    0.4299524606
 O   -1.2178267003   -1.2762657508    1.6743233973
 C    0.1391622623   -0.8552086015    1.3463730938
 C    0.4167141932   -2.2375769358    0.6905206042
 C    1.1545292961   -2.0009779503   -0.6043607059
 N    0.4299381227   -0.8229121643   -1.1289983316
 H    1.0013139595    1.8500138916    0.2615615222
 H   -0.2311950607    1.8300100433   -1.0073171140
 H   -0.7155168594    1.8892207008    0.7006308036
 H   -1.7696880658   -0.6479723430   -1.3307565878
 H   -1.8425887347   -2.8273333750    0.3231260177
 H    0.6900786216   -0.4282260742    2.1836993307
 H    0.6920840328   -3.0506965530    1.3572220890
 H    2.2129800882   -1.7539904076   -0.4686974983
 H    1.0765067847   -2.8314559966   -1.3141890755