19

 C   -0.0070901475    1.5159203056   -0.1494107587
 C   -0.4524054996    0.0831483880   -0.3981235192
 O   -1.6222945936   -0.2500434136   -0.4317857300
 N    0.5625230066   -0.8141172006   -0.6102527837
 C    0.3048156083   -2.1877972717   -0.9143821206
 C   -0.4305656971   -3.2590667864   -0.0760408586
 N    0.0118008965   -4.0474140520   -1.3215356027
 C   -0.4516166768   -2.8112333126   -2.1117297674
 C    1.3442069971   -3.2906156166   -1.1679252978
 H    0.9565831222    1.5771297797    0.3644398610
 H    0.0834494195    2.0407435470   -1.1066441048
 H   -0.7705629031    2.0215209022    0.4424833265
 H    1.5188622845   -0.4991354244   -0.5853907103
 H    0.0440130865   -3.6036160917    0.8468900200
 H   -1.5115832886   -3.1636966922    0.0272580824
 H   -1.5343132430   -2.6871417876   -2.1445000732
 H    0.0031721290   -2.7344335677   -3.1032594877
 H    1.9294971855   -3.2476613126   -2.0911305595
 H    1.9471027435   -3.6370704927   -0.3235184658