17

 O   -0.1870644353    0.0364909861   -0.7175973233
 C   -0.0738114663    1.1399305910   -0.2361503319
 C   -1.2857586332    1.9482932230    0.1961359229
 C   -1.7958652134    2.7979990550   -0.9771747176
 C   -0.8426251607    3.8035810026   -1.5529290784
 C    0.4898477645    3.9320646623   -1.4642598459
 C    1.5408974481    3.1225654798   -0.8019498497
 O    2.6914511785    3.5079458226   -0.8662759762
 C    1.2743387062    1.8041210046   -0.0552787720
 H   -2.0695487047    1.2529255867    0.5061466763
 H   -1.0355820477    2.6014480065    1.0389982661
 H   -2.1195188599    2.1291216938   -1.7882776876
 H   -2.7021590887    3.3317688310   -0.6660490583
 H   -1.3410530568    4.5576532121   -2.1614104257
 H    0.9468733300    4.7747745418   -1.9768096010
 H    1.4085723630    2.0355979594    1.0103453439
 H    2.0655274563    1.1082870715   -0.3413486218