21

 C    0.0303564656    1.5601009031    0.0202170427
 C   -0.0124383285    0.0323058803    0.1106601864
 C   -1.4139340971   -0.5422488207   -0.1372580588
 C   -1.4568899639   -2.0627283265   -0.0780461454
 C   -1.4859607443   -2.7228409730    1.3502217388
 O   -2.9054939183   -2.3657924191    1.4237867826
 C   -2.8775668419   -2.7264397897    0.0024742460
 C   -2.5163114178   -4.2198656343    0.0656320497
 C   -1.5566142242   -4.2171557276    0.9939702322
 H    1.0385296579    1.9440549381    0.2049861829
 H   -0.2817034553    1.9062615417   -0.9715273912
 H   -0.6412688606    2.0178119931    0.7548067262
 H    0.6915593508   -0.3980248523   -0.6141690699
 H    0.3414096921   -0.2841186255    1.1005409115
 H   -2.1220846900   -0.1354477688    0.5924554533
 H   -1.7613374083   -0.2193447316   -1.1290425351
 H   -0.7626575294   -2.5159253381   -0.7924587528
 H   -0.8879730968   -2.3840705039    2.1956134775
 H   -3.7404481427   -2.3867461919   -0.5699171128
 H   -2.9407903915   -5.0232857574   -0.5176558387
 H   -0.9577973859   -5.0180447158    1.4012905151