20

 C   -0.3894325771    1.4581390155   -0.0600154205
 C   -0.1057932960   -0.0403430257   -0.0170464411
 C    1.1022338989   -0.4864549200   -0.8970106124
 C    1.9785088636   -0.5529373595    0.3788711327
 C    3.1436773747   -1.5586783461    0.5948634869
 N    4.0230004238   -0.3982411268    0.7730156635
 C    3.0454117168    0.5466124378    0.5922538358
 O    3.0529581455    1.7514050720    0.6028150193
 C    0.6921063502   -0.5027466649    1.2408426644
 H    0.5254747964    2.0325717383    0.1199093182
 H   -0.7905431026    1.7519828173   -1.0363746578
 H   -1.1242139299    1.7386748794    0.7028115437
 H   -1.0261041899   -0.6027498821   -0.1978990784
 H    0.9598906462   -1.4755183532   -1.3424583927
 H    1.4273199273    0.2095302360   -1.6750751440
 H    3.0503792374   -2.1920065768    1.4838248527
 H    3.3883077672   -2.1780080261   -0.2750032808
 H    5.0104296176   -0.3149781571    0.9631167107
 H    0.7042961483    0.1809146604    2.0940175675
 H    0.3978060218   -1.4978044684    1.5874931525