21

 C    0.0103168358    1.5267354067   -0.0033559014
 C    0.0596071135   -0.0178796032    0.0793973782
 C    0.7492758286   -0.4248222678    1.4016387994
 C   -1.3188039991   -0.5382605850    0.0782507787
 C   -2.4402353923   -0.9767716666    0.0652204968
 C    0.7690311177   -0.5562096834   -1.1819809586
 C    2.1188628317   -1.2470063849   -1.1711054948
 C    0.8779812681   -2.0345978507   -1.4712586616
 O    0.4637141801   -2.9579594796   -0.5070831420
 H    1.0283459454    1.9273210037   -0.0382260745
 H   -0.5226328229    1.8559425988   -0.8996562159
 H   -0.4988777590    1.9456933922    0.8691222892
 H    0.1678814759   -0.0559022999    2.2512966811
 H    0.8383930809   -1.5087538393    1.4828766597
 H    1.7487248598    0.0175096990    1.4532617397
 H   -3.4380328009   -1.3410364198    0.0593340012
 H    0.5667610852    0.0569975921   -2.0559964481
 H    2.8126304272   -1.0322427150   -1.9764745414
 H    2.5860845957   -1.4454315892   -0.2142334713
 H    0.7136983507   -2.3537895409   -2.5003895973
 H   -0.4813604821   -2.8164140373   -0.3650860572