21

 C   -0.1001127231    1.5560084305    0.0196077921
 C   -0.1316793765    0.0779454774   -0.3244673719
 O   -1.2160120694   -0.5203467192    0.3855296401
 C   -1.3509793909   -1.8696866536    0.1683293232
 C   -2.2474139441   -2.4906993775   -0.9067595634
 O   -2.6512566169   -3.5448648770    0.0096175769
 C   -1.9138619271   -2.9319400870    1.0744805317
 C   -0.4331332852   -2.9227435839    0.7723530583
 C    0.2730119524   -4.0276867463    0.0196960328
 H    0.7232251430    2.0508491931   -0.5039979231
 H   -1.0372198848    2.0389262441   -0.2713475303
 H    0.0371984422    1.6961934621    1.0955512719
 H   -0.2654755454   -0.0662226821   -1.4074144559
 H    0.8110130403   -0.4133048015   -0.0418813025
 H   -3.0995327295   -1.8481214687   -1.1550574679
 H   -1.7891729550   -2.8833797760   -1.8215088362
 H   -2.3659426178   -2.9085078471    2.0590907706
 H    0.1237155504   -2.4845100795    1.5999469917
 H   -0.4165846567   -4.5310576260   -0.6624271297
 H    1.1202703043   -3.6470182204   -0.5606540564
 H    0.6561605997   -4.7828572014    0.7142739681