20

 C    0.1099742009    1.4556579608   -0.1078920055
 C    0.0162671430   -0.0347726182    0.0337667744
 C   -1.3144881467   -0.7936796134   -0.1558248187
 C   -0.7522125912   -2.1054589841    0.4292195498
 N   -0.4114027724   -1.7668920743    1.8412033689
 C    0.6060420193   -0.8840304553    1.2649126024
 C    0.8015984659   -1.8456240989    0.0806363108
 C    1.7729307934   -2.9738644677   -0.0626935095
 O    0.8750124276   -0.7918391519   -0.8818602081
 H    1.1380537509    1.7978416204    0.0429235066
 H   -0.2122001143    1.7735783403   -1.1052993538
 H   -0.5313706682    1.9485473470    0.6301206528
 H   -2.1587117966   -0.4116939740    0.4274280223
 H   -1.5819822284   -0.8360539423   -1.2141111851
 H   -1.2653844881   -3.0494030046    0.2469075707
 H   -1.1635086212   -1.2954512689    2.3441220758
 H    1.3897237553   -0.4548241906    1.8899680207
 H    1.6706801326   -3.6590402136    0.7833536833
 H    1.5836804886   -3.5319014529   -0.9859384661
 H    2.8008737597   -2.6005613777   -0.0935284119