17

 O   -0.0255895384    1.4244530922   -0.0800372725
 C   -0.0012835178    0.0129106682    0.1027389065
 C   -1.3735778262   -0.5945363639    0.0279186440
 N   -2.3827413099   -0.0551854946    0.9178546945
 C   -3.1032282629   -1.1298921305    1.4280179789
 N   -2.8194082123   -2.2844498611    0.9517295984
 C   -1.7619610797   -2.1006970191   -0.0018919317
 C   -2.0034130644   -1.1888929160   -1.2039826216
 O   -3.2692303382   -0.8021304572   -1.6130541282
 H   -0.3739564104    1.5983291106   -0.9616119552
 H    0.6563596255   -0.4865575947   -0.6240793591
 H    0.4307930544   -0.1404882645    1.0983805047
 H   -2.1504296910    0.7494833706    1.4821467940
 H   -3.8877826622   -0.9507094445    2.1557372469
 H   -1.0473649384   -2.9108621154   -0.1027264950
 H   -1.3349884091   -1.3706290736   -2.0423160980
 H   -3.5833385591   -0.1472342964   -0.9746419366