17

 C    0.0359133324    1.5913373237   -0.1674614667
 C   -0.0008098702    0.0931893318    0.0142627426
 N    1.2823001657   -0.6475416291   -0.0474704778
 C    0.5589581461   -0.6289214269    1.2094010429
 C    1.1981702229    0.1150825359    2.3735051359
 C    2.0678659168   -0.7649658079    3.1547849667
 N    2.7409553694   -1.4779349662    3.7656210826
 C   -1.1712774458   -0.6083184394   -0.5970779777
 O   -2.0829682036   -0.0585026381   -1.1576086089
 H    0.9735147289    2.0128030680    0.1971034864
 H   -0.0588683926    1.8368546227   -1.2285032615
 H   -0.8011864826    2.0642204568    0.3537038414
 H    1.1795071379   -1.5414448862   -0.5255872666
 H    0.0392251718   -1.5384700661    1.5087283853
 H    1.7900617415    0.9558577226    2.0041041526
 H    0.4230135067    0.5183528982    3.0351931139
 H   -1.1257174155   -1.7214523299   -0.5056115708