19

 C    0.2417300383    1.4639783183   -0.2035160228
 C   -0.2590336348    0.0783623407    0.2441017269
 C    0.4932751660   -0.4774088031    1.3622826581
 C    1.1254368058   -0.9210084385    2.2890234244
 C    1.8636831543   -1.4267857021    3.3906510791
 C    3.3584279525   -1.5985733138    3.4563237883
 C    2.4723863841   -2.7933122039    3.7113046861
 C    1.7893160249   -2.6302720717    5.0602117053
 O    1.3379124798   -1.2908671842    4.7252238332
 H    1.2861820974    1.4151652612   -0.5231008407
 H   -0.3585651458    1.8341520835   -1.0400345564
 H    0.1735244960    2.1840275003    0.6161962125
 H   -1.3188445982    0.1415409530    0.5227868476
 H   -0.2146018463   -0.6205742538   -0.6014660905
 H    3.8664718638   -1.6020957323    2.4979567754
 H    3.8975803533   -1.1248545975    4.2725808828
 H    2.4980350667   -3.6911308327    3.1096706723
 H    0.9329376179   -3.2988573646    5.2027273138
 H    2.4236094244   -2.6427751690    5.9545231245