14

 O   -0.1873162591    1.3300212112   -0.0620550895
 N   -0.0278059859   -0.0736728741   -0.0924713807
 C   -1.1485230095   -0.6577769059   -0.0356246524
 C   -1.4970620732   -2.0941627664    0.1045319856
 C   -2.7522210942   -1.7118259389    0.8273475843
 C   -2.6117685158   -0.2794218880    0.1563665834
 C   -3.2497899294   -0.9559588219   -1.0736592214
 N   -2.8616435680   -2.3043628854   -0.5187176694
 H    0.7259357688    1.6335003656   -0.0980073062
 H   -0.8621965419   -2.9612882126    0.2094489211
 H   -3.2065494544   -2.0890308016    1.7333316332
 H   -2.8987300932    0.6935142318    0.5422923278
 H   -4.3407348389   -0.9013148596   -1.0877511606
 H   -2.8425518753   -0.7186192443   -2.0619159851