20

 C    0.2184734571    1.6147850021   -0.0984744731
 C    0.0410385652    0.0982337695    0.0273642361
 C    0.3855804918   -0.6459726839   -1.2667356704
 N    0.8124248780   -0.4277787212    1.1556144522
 C    2.1522204358   -0.4374724478    1.3660437815
 C    2.3135859013   -1.0558379547    2.5857179882
 C    3.5603465351   -1.3589881734    3.3506666346
 N    1.0747499839   -1.3878424277    3.0509463763
 N    0.1735741259   -1.0089307675    2.1887919941
 H    1.2492466419    1.8747442675   -0.3609341676
 H   -0.4350052014    2.0020012268   -0.8855956490
 H   -0.0353201561    2.1151166353    0.8395096843
 H   -0.9937922372   -0.1209543119    0.3035048995
 H    1.4219478254   -0.4616782022   -1.5682911599
 H    0.2484013416   -1.7233222914   -1.1440287145
 H   -0.2645534567   -0.3039722255   -2.0772245149
 H    2.8560201451   -0.0227903163    0.6642920495
 H    3.5481858494   -0.8721685532    4.3310867173
 H    3.6629195174   -2.4348791494    3.5247415415
 H    4.4460927763   -1.0151654951    2.8103625743