14

 C   -0.0135962567    1.4908256789    0.1368495624
 C    1.5033833749    1.4193699005   -0.0216615295
 C    1.9715349874    0.1049121500    0.6255989856
 C    0.7321800545   -0.6031539739    1.1679143761
 C    0.0000441088   -0.0472932609   -0.0852003956
 C    1.4174514586    0.1158286322   -0.7791068732
 H   -0.4371212867    1.8618826693    1.0782096336
 H   -0.4735381541    2.0161036876   -0.7050718919
 H    2.1994646424    2.2325849375   -0.1838066880
 H    3.0032165062   -0.0241497480    0.9274519278
 H    0.8463636643   -1.6898626753    1.1197215966
 H    0.3390117396   -0.3173708185    2.1512559117
 H   -0.8672502028   -0.5590539005   -0.4972099543
 H    1.8286448536   -0.2036654887   -1.7253460514