21

 C   -0.0290301679    1.4704598512   -0.0925791623
 C   -0.0365572631    0.0153815019   -0.0756764251
 C   -0.0462238854   -1.1876397952   -0.0596263181
 C   -0.0342870901   -2.6432302717   -0.0443437508
 O   -1.3579845129   -3.1410740551    0.0579031256
 C   -1.4262161488   -4.5570105383    0.0418316171
 C   -2.9092461263   -4.9276624106   -0.0043673932
 C   -3.6503173649   -4.5361081419    1.2775485921
 O   -3.5078638239   -4.3463498067   -1.1533422724
 H    0.9881183169    1.8592812876    0.0273362892
 H   -0.4251260410    1.8619887536   -1.0357861191
 H   -0.6375266482    1.8796136655    0.7211681364
 H    0.4435807042   -3.0282724453   -0.9613680937
 H    0.5714730289   -3.0081109796    0.8024395094
 H   -0.9183012759   -4.9502520107   -0.8529247768
 H   -0.9358868792   -4.9838833820    0.9319377222
 H   -2.9785910284   -6.0130026090   -0.1468481342
 H   -4.7145216783   -4.7612146695    1.1724147003
 H   -3.2618075827   -5.0855418762    2.1421981382
 H   -3.5357814523   -3.4660576203    1.4733113021
 H   -3.2269902704   -3.4225939578   -1.1535932870