14

 N    0.2951594956    1.2486285618    0.0034519820
 C    0.0502651681   -0.0040971540    0.0015887729
 N   -1.2106562375   -0.5365559317    0.0128604256
 C   -2.4232981962    0.1444993281    0.0275849971
 N   -3.5414554244   -0.5810057182    0.0362423868
 N   -4.5246504059    0.3458276593    0.0495858849
 C   -4.0571499384    1.6145899821    0.0495117526
 C   -2.6805904281    1.5358902486    0.0353072052
 H    1.3000335375    1.4037923020   -0.0064366215
 H    0.8093389028   -0.7954997014   -0.0090730349
 H   -1.2969309818   -1.5398987460    0.0099579816
 H   -5.4802126263    0.0361176474    0.0581240839
 H   -4.7222537891    2.4637240083    0.0593504530
 H   -1.9538202762    2.3262381736    0.0308309909