19

 O    0.0331284222    1.4318286353   -0.1038483810
 C   -0.0010947174    0.0297336108    0.0458133765
 C    0.2709788810   -0.6212518270    1.4303597450
 C   -0.4545679081    0.1001380520    2.5888631331
 C   -1.7939974474   -0.5460677086    2.1556626411
 C   -2.4225826750    0.1388080909    0.9137809139
 C   -1.4095403435   -0.5961795583    0.0041009251
 O   -1.8559825527   -1.1242918448   -1.2112462973
 C   -1.0017044055   -1.5196739250    1.2049022974
 H    0.9491458176    1.7241697403   -0.0585725049
 H    0.6073253659   -0.4771457031   -0.7179334316
 H    1.2775484921   -1.0019069902    1.6079208151
 H   -0.1241632975   -0.2910442349    3.5553903794
 H   -0.4026369173    1.1931872350    2.6084007809
 H   -2.4752200426   -0.8765524313    2.9397293923
 H   -3.4229086820   -0.2577555726    0.7168045317
 H   -2.4418657533    1.2315449860    0.8812338035
 H   -2.0861425207   -0.3862281939   -1.7877785588
 H   -1.0373799559   -2.6051307106    1.2024398084