21

 C   -0.3860958416    1.5499570386    0.2686992012
 C   -0.0364319742    0.0764160788    0.0446739968
 C    0.7612989941   -0.5297536811    1.2027284533
 C    1.1136516368   -2.0130919365    0.9699729875
 C    1.8675130961   -2.6042115856    2.0700892576
 C    2.5018864927   -3.0545546719    2.9898150027
 C    3.2138529928   -3.6401564343    4.1166708720
 C    2.3555907912   -4.6482428500    4.8836796777
 O    2.3708810386   -4.7658275528    6.0785229095
 H    0.5179415177    2.1573398763    0.3874587653
 H   -0.9530995600    1.9576212519   -0.5738238010
 H   -0.9917820780    1.6800745649    1.1722651644
 H   -0.9585357142   -0.5016346625   -0.1026606143
 H    0.5378890119   -0.0272782903   -0.8857185380
 H    1.6882389959    0.0363604512    1.3543693701
 H    0.1916552684   -0.4417791516    2.1356726641
 H    0.1893852475   -2.5854205414    0.8131385765
 H    1.6873943191   -2.1092652689    0.0383148869
 H    4.1016052339   -4.1883196458    3.7638425125
 H    3.5697856427   -2.8863618254    4.8267674525
 H    1.7138200287   -5.2847089733    4.2361572227