19

 C   -0.0647041997    1.5934765795   -0.0753061873
 C    0.0413219921    0.0754805931   -0.0213454312
 C    0.7266380270   -0.6360001902   -1.1962873130
 O    2.1047743809   -0.2309195238   -1.1943403746
 C    1.7043673622   -1.2992058220   -0.3192751817
 C    2.4304151324   -2.6016935246   -0.4001645738
 C    1.1104726241   -0.6179423083    0.9400747452
 C    2.0482230322    0.2675724984    1.7166922793
 O    2.0345327760    0.3757143943    2.9188774418
 H    0.8856712534    2.0418551679   -0.3761465758
 H   -0.8266017301    1.8975489374   -0.8010313367
 H   -0.3482461586    2.0061404185    0.8981086500
 H   -0.9359269604   -0.3727429925    0.1821054348
 H    0.3089883201   -0.9385119903   -2.1504624142
 H    2.5891448077   -2.8833078115   -1.4444112835
 H    3.4088266247   -2.5344000349    0.0884422187
 H    1.8609376710   -3.3934342633    0.0967206038
 H    0.6275761512   -1.3139509928    1.6293447773
 H    2.7745723738    0.8326833150    1.0956179108