19

 O   -0.0536342136    1.4370819428    0.0771330068
 C    0.0085162005    0.0206365492   -0.0104886745
 C    0.8045634054   -0.5566845226    1.1889034528
 O    0.5885937988   -1.9408499607    1.4384727159
 C   -0.7941208542   -2.3372729811    1.3566975304
 C   -1.2910772054   -2.0743167372   -0.0733812531
 C   -1.4292150856   -0.5368463679    0.0000804766
 C   -2.0431761442   -0.3735361986    1.3866948430
 C   -1.6962752320   -1.4053676527    2.1584496859
 H    0.8434698552    1.7837318364    0.0320115358
 H    0.4825208588   -0.2837069699   -0.9563457710
 H    1.8824697947   -0.4504146486    1.0235205090
 H    0.5355559127    0.0487394001    2.0647750881
 H   -0.8049307912   -3.3834893617    1.6667395520
 H   -0.5801051882   -2.4275673954   -0.8254613582
 H   -2.2634723235   -2.5437003721   -0.2453796441
 H   -2.0094535847   -0.0832532238   -0.8068365126
 H   -2.6077339918    0.4994179533    1.6901103436
 H   -1.9104684017   -1.5300502994    3.2127041235