18

 C    0.0222962869   -1.2220914266   -0.1041014040
 C    0.0123143110   -0.0209660961   -0.0847740786
 C   -0.0017045382    1.4377414173   -0.0328614520
 N    1.3358118658    1.9889328768    0.1088631510
 C    2.0774822177    1.7763549782    1.3686603518
 C    2.6432708646    3.2085306803    1.2317286230
 C    1.4521558110    3.4602216375    0.2602496379
 C    1.6510231042    4.2253076073   -0.9581626785
 C    1.8146031659    4.8695244837   -1.9599840988
 H    0.0304476855   -2.2835004808   -0.1328657092
 H   -0.4327958472    1.8371722281   -0.9599577664
 H   -0.6705785145    1.7601273109    0.7914730707
 H    1.4181097441    1.6764528763    2.2465911142
 H    2.7748684049    0.9353268406    1.3512905059
 H    2.6815675585    3.8290913224    2.1262885836
 H    3.6006420460    3.2388149969    0.7113076278
 H    0.5976048188    3.8817141448    0.8201565053
 H    1.9644607450    5.4318909423   -2.8482622437