19

 O   -0.1210086083    1.4090729302    0.0261121304
 C   -0.0214706248    0.0234820102   -0.0117512698
 C    0.3811095074   -0.8034490765   -1.2914974269
 C   -0.3406738712   -1.9363109685   -0.4788304793
 C    0.5729966210   -2.0158814701    0.7561691044
 C    0.7830680035   -0.7346735987    1.0665418892
 C   -1.3185457336   -0.8152817180   -0.0279761305
 C   -2.5011220602   -0.7991622681    0.8714012041
 C   -2.6371964773   -0.4221713073   -0.6011900958
 H    0.7664622176    1.7820037170    0.0444690067
 H   -0.1673817330   -0.4915681921   -2.1843919196
 H    1.4469535847   -0.9389646743   -1.4915625768
 H   -0.6863975953   -2.8548827791   -0.9486868359
 H    0.9242271303   -2.9164979461    1.2397358318
 H    1.3407517699   -0.2834558578    1.8758825043
 H   -2.9229561767   -1.7458998480    1.1937429333
 H   -2.5773159753   -0.0019816856    1.6040411295
 H   -2.7949295251    0.6246953704   -0.8403986407
 H   -3.1521081537   -1.1169594077   -1.2578057583