19

 C   -0.4896063404    1.0146795700    0.0691641829
 O    0.6097749128    0.1140915972    0.0755363949
 C    0.6025616679   -0.7975792594    1.0744399274
 N    1.5632655434   -1.6047888818    1.1750137704
 C    1.5877906479   -2.6202054607    2.2100213837
 C    0.3164081329   -2.9172594362    3.0208577282
 C    0.4996824870   -4.1455597222    3.9139719332
 O   -0.1177480895   -1.7899418816    3.7868808829
 H   -0.4981341544    1.6486875845    0.9644534571
 H   -0.3663808613    1.6454903155   -0.8122494287
 H   -1.4472997351    0.4840529057   -0.0023289525
 H   -0.2675089989   -0.7383595171    1.7365252982
 H    1.9098226212   -3.5567801204    1.7349994374
 H    2.3982601255   -2.3681718837    2.9138902013
 H   -0.5100941495   -3.1033707465    2.3234022187
 H    1.3465346253   -4.0088079513    4.5980394505
 H   -0.3990628380   -4.3084372547    4.5142506891
 H    0.6911531866   -5.0453510251    3.3208905046
 H    0.6117925767   -1.5287649221    4.3601870607