21

 C    0.0101474447    1.5366419031   -0.1289457530
 C   -0.0293957165    0.0418464286    0.0539828062
 O    1.2489007470   -0.6529979399   -0.0515071500
 C    0.5786291640   -0.6408969917    1.1861219526
 C    1.1443439650   -0.2468331290    2.5566689582
 C   -0.1855786340   -0.8123404700    3.1405392253
 C    0.2412102553   -1.8636607783    2.0618199587
 C   -0.4616861207   -3.1291027394    1.6563554167
 C    1.6986158610   -1.7045086745    2.6237281351
 H    0.8255797402    1.9777867683    0.4496121831
 H    0.1575006811    1.7926919062   -1.1834448701
 H   -0.9339190555    1.9873732154    0.1966444066
 H   -0.8324504565   -0.4699225149   -0.4802101226
 H    1.6568837238    0.6713265485    2.8403083363
 H   -0.1360281319   -1.1552240876    4.1772067413
 H   -1.1001070301   -0.2447343128    2.9464964457
 H   -1.4890936070   -2.9245618317    1.3351963841
 H    0.0616066236   -3.6112326411    0.8237947258
 H   -0.5061484300   -3.8421442712    2.4863032109
 H    2.5156718924   -1.9521170808    1.9429551861
 H    1.8669280743   -2.1056753773    3.6273420030