16

 O   -0.0707590158    0.0055705985    0.2336495613
 C   -0.0409229921    1.2010522225    0.0815826046
 N   -1.1196806541    2.0250832327   -0.1238471093
 C   -0.8221832493    3.4266284777   -0.0728671213
 C   -0.2388012844    3.9565170940    1.2157503971
 C    0.6726337578    3.5344752257    0.0852428308
 C    1.2312449954    2.1119848450    0.0834268358
 C    2.1340276805    1.7943807061    1.1784898554
 C    2.8765626723    1.5512439076    2.0908432699
 H   -2.0469418616    1.6571651292    0.0261091768
 H   -1.3827320032    4.0641795262   -0.7465585355
 H   -0.3140217852    5.0214372513    1.4071121734
 H   -0.3004178865    3.3272697671    2.0976190038
 H    1.2285885016    4.2988231433   -0.4418662315
 H    1.7447738298    1.9241895679   -0.8690246805
 H    3.5334032448    1.3225280054    2.8931438294