21

 C    0.0227677590    1.5523426463    0.2550177652
 C   -0.0037461241    0.0557694237    0.0201678272
 C   -1.1675695927   -0.6090390660    0.1292547188
 C   -1.5081996094   -2.0596790962   -0.0763458051
 C   -0.4622095163   -2.9872008963   -0.6972878075
 C    0.8773156508   -2.9885857089    0.0504467476
 O    1.5440660871   -4.1989755562   -0.3001444885
 C    1.7156217210   -1.7846667775   -0.2956293460
 C    1.3114767567   -0.5095787854   -0.3134960678
 H    0.7128955681    1.8146300067    1.0665643934
 H    0.3749904756    2.0834793591   -0.6384097665
 H   -0.9658193320    1.9406548390    0.5109167881
 H   -2.0344329209   -0.0117643369    0.4108997529
 H   -1.8304767187   -2.4714400679    0.8926859389
 H   -2.4109792228   -2.1023885062   -0.7021394747
 H   -0.8483443825   -4.0114752401   -0.6883007836
 H   -0.2817629289   -2.7192450175   -1.7430100040
 H    0.6633763079   -2.9811202312    1.1344055832
 H    2.3830281751   -4.2233185502    0.1709060057
 H    2.7411147906   -2.0072285243   -0.5843518883
 H    2.0591151764    0.2353517160   -0.5810202994