14

 N    0.0484194678    1.4235406454    0.1490092864
 C    0.0328303787    0.0394653853    0.0420501528
 C   -1.0977750063   -0.7925796816    0.0167456736
 N   -0.6336873960   -2.1004078341   -0.0210875556
 C    0.7148313396   -2.1107998310   -0.0210200360
 C    1.1714761596   -0.8030787733    0.0178567129
 C   -2.5046086281   -0.5340981814    0.0230488339
 O   -3.3612952834   -1.4067989187   -0.0055583423
 H    0.8836414406    1.8574629306   -0.2162434144
 H   -0.7806536056    1.8913878469   -0.1864006743
 H   -1.2661290775   -2.8829020677   -0.0457536081
 H    1.2710492479   -3.0349758215   -0.0499006384
 H    2.2044247261   -0.4905707754    0.0323603696
 H   -2.7876553434    0.5413435165    0.0570897498