21

 C   -0.0537287992    1.3985098102   -0.1270354880
 O   -0.0129237663    0.0139632326    0.1191495726
 C   -1.2802140217   -0.6265016873    0.0445353004
 C   -1.6776118769   -0.9364677059   -1.4262685820
 C   -1.2778228020   -2.3819050112   -1.6003769422
 C   -1.0013944967   -2.9654177318   -0.4369912771
 C   -1.1641675404   -2.0161695859    0.7277099343
 C   -0.0655345371   -2.1147821699    1.7847316055
 O   -0.1934646605   -3.3979569358    2.3898592674
 H    0.9637971034    1.7792146821   -0.0072485044
 H   -0.3968001651    1.6375267533   -1.1448786521
 H   -0.7144637781    1.9176371021    0.5857664904
 H   -2.0261974713    0.0071535548    0.5458046747
 H   -2.7558799149   -0.7982829795   -1.5872128315
 H   -1.1696225773   -0.2603292940   -2.1232480385
 H   -1.2527909820   -2.8672325456   -2.5698360429
 H   -0.7161448160   -3.9996338101   -0.2887388813
 H   -2.1087950100   -2.2383401798    1.2458482109
 H    0.9174708133   -1.9870433048    1.3154587354
 H   -0.1862741311   -1.3106868047    2.5265238380
 H    0.5596317900   -3.5273136987    2.9730711001