18

 C    0.0352092896    1.5071671900    0.0046418867
 O    1.1904341584    0.6560528913   -0.0080983720
 C   -0.1030733726    0.0508426875   -0.0077068408
 C   -0.5330500190   -0.8535588663    1.1535717356
 N   -1.0859520906   -2.0396850871    0.4592925227
 C   -0.2021865152   -2.2800178682   -0.7702246380
 C   -1.4500833690   -2.7756588706   -1.5211255812
 C   -1.8555891161   -1.5038428890   -0.7559197394
 C   -0.5239004893   -0.8024713368   -1.1727072253
 H   -0.1277009505    2.0581810694    0.9307815046
 H   -0.1315543342    2.0814526920   -0.9065716270
 H    0.3201323615   -1.1373526879    1.7766192179
 H   -1.3025359971   -0.4096844008    1.7926579402
 H    0.7799096824   -2.7468165086   -0.6772421766
 H   -1.4293883083   -2.7119715041   -2.6100263214
 H   -1.8860616144   -3.7076366822   -1.1588373021
 H   -2.8441619226   -1.0535680527   -0.6423449213
 H   -0.3577877332   -0.4336981157   -2.1859739726