12

 O    0.1146097265    1.3479598682   -0.0722716634
 C    0.0703423603    0.0004174278   -0.0676889823
 C   -0.0230927817   -0.8215659184   -1.1694614453
 N   -0.0332248539   -2.0932815247   -0.6407655958
 C    0.0517274475   -1.9888621892    0.7170952487
 N    0.1162183998   -0.7109109174    1.0858916972
 C    0.0651842664   -3.1188449612    1.5619300580
 C    0.0746191332   -4.1012564893    2.2583644752
 H    0.1791079527    1.6208203512    0.8512154933
 H   -0.0799894809   -0.6230623866   -2.2247257305
 H   -0.0926219065   -2.9552698515   -1.1564127469
 H    0.0840124467   -4.9584369491    2.8851514319