18

 O   -0.1006068607    1.4944069662   -0.0211415031
 C   -0.0196957476    0.0828210028   -0.0090967467
 C   -1.4088012011   -0.5362343903   -0.1297679950
 C   -2.4095456814    0.1660717054   -0.9656376670
 N   -1.6559597014   -0.9604460060   -1.5327935105
 C   -0.4666310120   -0.5623285493   -2.3157394794
 C    0.6891323483   -0.4802812971   -1.2833621495
 C    1.8443005459    0.2983182493   -1.6948725084
 C    2.7776728861    0.9945385982   -1.9997800668
 H    0.7809587293    1.8307615275   -0.2285016679
 H    0.4886935503   -0.2667344906    0.8997048038
 H   -1.7197900942   -1.2338911049    0.6419896355
 H   -3.4681473332   -0.0250306472   -0.8126460640
 H   -2.1603545856    1.1721988119   -1.2889300374
 H   -0.2654177740   -1.3149914276   -3.0817566900
 H   -0.6051576466    0.4024452745   -2.8156254936
 H    1.0024107832   -1.5057131332   -1.0512238104
 H    3.6134713946    1.5819872801   -2.2908267596