14

 O    0.0489829073    0.3466139041   -1.0778621438
 C    0.0426437681    1.2470222874   -0.2875224827
 C   -1.2825316612    1.7726865756    0.2650233828
 N   -1.2960880892    2.4234706148    1.5748979366
 C   -0.7509393166    3.6740281982    1.7756699528
 O   -1.2160873098    4.5354955316    2.4662101876
 O    0.4380168339    3.8513985225    1.1076682456
 C    1.3325502073    2.7644777795    1.1127914345
 O    1.2014995530    1.8793206684    0.0114780893
 H   -1.6867869768    2.4307579964   -0.5188219389
 H   -1.9361598593    0.9021585516    0.3171198218
 H   -2.1737722275    2.3296165756    2.0668733615
 H    2.3299547127    3.1885816631    1.0019179175
 H    1.2469381279    2.2042942011    2.0484856755