19

 C   -0.1084883908    1.5592163293   -0.0040273118
 C    0.0129502020    0.0530923242    0.0167630258
 C    1.3625546086   -0.6348592207   -0.2096583398
 C    2.5548729005    0.1422211437   -0.3905020051
 N    3.5250371410    0.7478911606   -0.5661124395
 C    0.6746064613   -0.6731318824    1.1531655825
 N    1.2588513836    0.0965890236    2.2050986706
 C    0.6609578891   -0.0435444234    3.5309175731
 C    1.9927298779   -0.6386778008    3.2313605053
 H    0.7363586501    2.0300832703    0.5001330567
 H   -0.1501210491    1.9289846939   -1.0331681345
 H   -1.0261233585    1.8722731064    0.5047928494
 H   -0.8148670869   -0.4783043931   -0.4447833593
 H    1.3554136507   -1.5560589530   -0.7827550830
 H    0.2639206239   -1.6495400277    1.4274864302
 H    0.5807418975    0.8727741988    4.1078840839
 H   -0.1782516363   -0.7283025821    3.6410826630
 H    2.0453941309   -1.7221221800    3.1405708596
 H    2.9036768845   -0.1646438676    3.5828263029