16

 O   -0.0070646545    0.0366102825    0.0806113545
 C   -0.0062037215    1.2355704524    0.0172868627
 C   -1.2162902923    2.1829763878    0.0147419604
 C   -0.8174262345    3.2122698200    1.0804624508
 C    0.7564625013    3.2047589700    1.0955870653
 C    1.1509691573    2.2206387771   -0.0234735384
 N    1.0871200898    2.9065116253   -1.3383806862
 C   -0.0640512767    3.1218197663   -1.8200717972
 O   -1.2762093552    2.8114261552   -1.3004038080
 H   -2.1760508699    1.6910422577    0.1569823329
 H   -1.2346254861    4.1915497299    0.8358958362
 H   -1.2195541169    2.9158969003    2.0531492319
 H    1.1774203468    4.1932186271    0.9013796738
 H    1.1364232011    2.8594158544    2.0613966779
 H    2.1313582914    1.7618705078    0.0959211990
 H   -0.1827871901    3.6214569661   -2.7792375057