20

 C    0.1056403067    1.5964731792   -0.2387116079
 C   -0.0000889582    0.1003906739   -0.0097098512
 O    0.6263858078   -0.5530172002   -1.1251535721
 C    0.6365423813   -1.8994729888   -1.1066560219
 N    0.1250535535   -2.5702499133   -0.1635067465
 C    1.3401639131   -2.4014828037   -2.3650241890
 C    1.4159540151   -3.8510433748   -2.4630785575
 C    1.4714169842   -5.0518278909   -2.5310354914
 C    1.5471632541   -6.5027387099   -2.6287653397
 H    1.1517221397    1.9089830910   -0.3060180414
 H   -0.3995046750    1.8872853818   -1.1643108157
 H   -0.3616077480    2.1334529893    0.5921787729
 H    0.5000337872   -0.2116492411    0.9130681380
 H   -1.0406919421   -0.2332203581    0.0603387048
 H    0.2420723778   -3.5659000108   -0.3475873441
 H    0.8158303962   -1.9784098699   -3.2314273191
 H    2.3428437280   -1.9556949376   -2.3866841912
 H    2.0421752952   -6.8093573917   -3.5566814894
 H    2.1138933728   -6.9296442181   -1.7942352594
 H    0.5497788106   -6.9555384662   -2.6202400483