21

 C   -0.0802280682    1.6130290094   -0.0846901878
 C    0.0995819425    0.0962516895   -0.0023125072
 C    0.7442465727   -0.5290931475   -1.2616661046
 C    0.9710834618   -2.0539961972   -1.1046033143
 C    1.8586410011   -2.6619756190   -2.1682682396
 C    1.6329597592   -4.0555129862   -2.6278922594
 N    1.3694339754   -2.9239021358   -3.5293410601
 C   -0.0804326924   -0.2575117849   -2.4450647426
 N   -0.7645066083   -0.0610585957   -3.3565380438
 H    0.8807702152    2.1190554267   -0.2278205614
 H   -0.7331355359    1.8913516241   -0.9172259247
 H   -0.5261806611    1.9986921536    0.8364556727
 H    0.7400644833   -0.1594682865    0.8495824017
 H   -0.8674872868   -0.3887497206    0.1749945584
 H    1.7174969293   -0.0476247690   -1.4275596179
 H    1.4295097994   -2.2185724733   -0.1216301950
 H   -0.0016429536   -2.5601988820   -1.0897094647
 H    2.8837927248   -2.2922611966   -2.1536071202
 H    2.4738005424   -4.6827176592   -2.9101635410
 H    0.7900179899   -4.5958529448   -2.2029439523
 H    0.3720720792   -2.7353882552   -3.5938805763