21

 C   -1.7581420114   -0.5988945576   -0.4702518829
 C   -0.3192682396   -0.2080104123   -0.1120895356
 C    0.7240419833   -0.6054762205   -1.1502081126
 C    0.6486479436    0.1611192076   -2.4572587005
 O    0.8623852343    1.5368462345   -2.1717946730
 C    2.0855328858   -1.0189873991   -0.6999350069
 C    1.1606584375   -2.0689399797   -1.3088585926
 C    0.6178599580   -3.1408932479   -0.4465267416
 O    0.3633623529   -4.2573904615   -0.8303803446
 H   -2.0894686990   -0.1233473512   -1.3987665362
 H   -1.8625734854   -1.6815837744   -0.5971332405
 H   -2.4482741923   -0.2869340477    0.3194473864
 H   -0.2516434284    0.8782367566    0.0092876262
 H   -0.0566222739   -0.6405855985    0.8588124921
 H    1.4120939300   -0.2231943557   -3.1515306035
 H   -0.3322233831    0.0031612979   -2.9303049037
 H    0.6517131429    2.0444724453   -2.9608054594
 H    2.9500719886   -0.7266866049   -1.2854030715
 H    2.2689273009   -1.0868611906    0.3680095336
 H    1.3776947593   -2.4065592171   -2.3174795560
 H    0.4680449259   -2.8582356130    0.6203315727