23

 C   -0.0576824900    1.4882982343    0.1621906903
 C   -0.0921369037   -0.0368440028   -0.0075887310
 C   -1.5384148579   -0.5534890044   -0.0421301373
 C    0.7234471783   -0.4641021341   -1.2434656713
 C    0.9108300514   -1.9784334002   -1.3687631919
 O    0.0677303162    0.0801331227   -2.3896972080
 C    0.8377998994    0.1532659925   -3.5586102970
 C    0.0876269731    1.0080561508   -4.5670392429
 O    0.4452108891    1.1684859767   -5.7032744984
 H    0.9706590969    1.8584154251    0.2393123023
 H   -0.5295001315    1.9816876507   -0.6922218235
 H   -0.5910999934    1.7920671796    1.0682216278
 H    0.4152705269   -0.4874398703    0.8564392975
 H   -2.0582760217   -0.1841472182   -0.9305972166
 H   -1.5859414339   -1.6461766968   -0.0521309780
 H   -2.0863995067   -0.2086302435    0.8402310775
 H    1.7200989315    0.0037351741   -1.1632279860
 H    1.3500188777   -2.3836395581   -0.4517526325
 H   -0.0446849738   -2.4787303554   -1.5470123529
 H    1.5837078600   -2.2307403232   -2.1935639116
 H    1.8203389896    0.6226269907   -3.3738311207
 H    1.0332112734   -0.8300463246   -4.0135639834
 H   -0.8285415011    1.4833677445   -4.1516242122