16

 C    0.1805261510    1.2175237353   -0.2378491886
 O   -0.2269726383   -0.0677283784    0.2037971265
 C    0.5751817713   -0.5818315265    1.2170483674
 C    0.2077964028   -2.0133663285    1.7021416301
 C    1.7323625870   -2.3859981987    1.7751689209
 O    2.1949919235   -3.6312933286    1.3544065581
 C    1.9362964936   -1.2038627025    0.8206305961
 O    2.6497518937   -1.0927756617   -0.1387304709
 H    1.1892153833    1.1929050865   -0.6664692293
 H   -0.5311708334    1.5285475157   -1.0053481620
 H    0.1586849740    1.9473074368    0.5862378423
 H    0.6804557451    0.1210956376    2.0598018158
 H   -0.3627265630   -2.0923161906    2.6266411475
 H   -0.2871529392   -2.5608787595    0.8971822814
 H    2.1178323841   -2.1755987209    2.7806065023
 H    2.4967557445   -3.5301045857    0.4424895721