18

 O   -0.1978056496    1.4369823929   -0.2112635050
 C   -0.1026682846    0.0452188595   -0.0270752182
 C   -0.4592356880   -0.6342864897    1.2729037489
 C   -1.1788296581    0.1606869719    2.3586212570
 C   -2.3728217403    0.8493659088    1.6638792402
 C   -2.6504212110    0.0581099006    0.3537956336
 O   -3.0751143275    0.8745179368   -0.7230653420
 C   -1.3764707863   -0.7375331149    0.0635345604
 H    0.5085599722    1.8634177524    0.2846548563
 H    0.7038802652   -0.4139604277   -0.5980307028
 H    0.1663608024   -1.4662096955    1.5807329326
 H   -1.5251685346   -0.5402058903    3.1260956125
 H   -0.5233718277    0.8781461659    2.8664448806
 H   -3.2578248450    0.8891260973    2.3042511953
 H   -2.1228019908    1.8760914067    1.3907488975
 H   -3.4711769744   -0.6505403485    0.5098832515
 H   -2.3361818917    1.4651840963   -0.9151874456
 H   -1.4686752502   -1.6422627026   -0.5266761628