23

 C    0.2161542876    1.4322344431   -0.1898517223
 C    0.7265237511    0.0058463206   -0.2913174510
 O   -0.0630578070   -0.6809219373   -1.2651043991
 C    0.2543350909   -2.0587934692   -1.4309774639
 C    1.3043699288   -2.3205126992   -2.5141161426
 C    0.9089111584   -1.6917736514   -3.8631511649
 O    0.9472422277   -0.2831899900   -3.8577968441
 O    2.5406668844   -1.8553054544   -2.0011117565
 C    3.6419787924   -1.9608364245   -2.8782528152
 H    0.3450825411    1.9627243678   -1.1383356737
 H   -0.8460774604    1.4463327935    0.0705302681
 H    0.7712203143    1.9755422872    0.5808520446
 H    1.7829838991   -0.0223518361   -0.5779749628
 H    0.6261619882   -0.5097455516    0.6764291356
 H    0.5973408561   -2.4883474111   -0.4800982370
 H   -0.6772302253   -2.5595652726   -1.7186728369
 H    1.3495337586   -3.4166419802   -2.6670032051
 H    1.5946260017   -2.0245511734   -4.6493427313
 H   -0.0878412066   -2.0846635138   -4.1306590999
 H    0.4458014139   -0.0136623550   -3.0750438549
 H    3.7387649268   -2.9778486313   -3.2895654157
 H    3.5762999179   -1.2445538632   -3.7064359701
 H    4.5358438004   -1.7381715979   -2.2900125012