19

 C   -0.2235415616    1.3959354453   -0.1049779366
 C   -0.0017252575   -0.0943418710   -0.0046078680
 C   -1.2038182758   -0.9850433416    0.3981524820
 C   -0.3357259608   -1.4783321950    1.5861073007
 N    0.8238580042   -0.6282046837    1.1609230031
 C    1.7282024204   -1.3393457074    0.2133479221
 C    1.0128856336   -0.7144951980   -1.0281055245
 C    0.4984899678   -1.6155674625   -2.0408311592
 N    0.0654126511   -2.3499726823   -2.8230698853
 H    0.7278187004    1.9336072544   -0.1702766500
 H   -0.8184543411    1.6356595849   -0.9941564771
 H   -0.7604271801    1.7642458769    0.7745879085
 H   -2.0956004815   -0.4203254763    0.6780884360
 H   -1.4891071043   -1.7433060236   -0.3340190455
 H   -0.7026871764   -1.1857104525    2.5736353647
 H   -0.1120035689   -2.5499502470    1.6057691609
 H    2.7740379797   -1.0402889763    0.3178787129
 H    1.6667647813   -2.4305866677    0.2670145389
 H    1.6161912495    0.0580563134   -1.5114733436