12

 O   -0.1524911278    0.0379434670   -0.0021297214
 C   -0.0019471160    1.2275095848    0.0060935895
 C    1.3547261329    1.8899169650   -0.0029782399
 N    2.4477442258    1.2165653886   -0.0204554498
 C    3.6076527556    1.9601624200   -0.0264722942
 C    3.6292745197    3.3139669779   -0.0149271001
 C    2.3931856911    4.0665197655    0.0048692146
 O    2.2205565155    5.2477111382    0.0170109342
 O    1.2413911058    3.2270331772    0.0099516485
 H   -0.8396867583    1.9524206459    0.0212249934
 H    4.5275834780    1.3838598371   -0.0414125849
 H    4.5493734277    3.8834413828   -0.0198768698