20

 C   -0.7665496666    1.2196447887    0.0403433828
 C    0.1347668049   -0.0122434204    0.0377839334
 C    1.1776369802   -0.0689261502   -1.1093978764
 C    2.3437409566   -0.7864665016   -0.4762277958
 C    2.2245076750   -0.9115383602    0.8489202849
 C    3.1889611122   -1.5286446201    1.8118626067
 C    0.9675204302   -0.2146509947    1.3371483258
 O    1.2939912048    0.9909532942    2.0380520929
 H   -0.1843240290    2.1366807943    0.1707820208
 H   -1.3190354975    1.2994700447   -0.9018177277
 H   -1.4945940816    1.1789687883    0.8566047256
 H   -0.4929345832   -0.9068593449   -0.0583770828
 H    0.7883684422   -0.5876620867   -1.9933356045
 H    1.4671506737    0.9350878326   -1.4541804587
 H    3.1926562660   -1.1430244425   -1.0524157101
 H    4.1014223073   -1.8692594913    1.3147661894
 H    3.4641020780   -0.8101057501    2.5925472826
 H    2.7393551470   -2.3886052019    2.3248241329
 H    0.4100820612   -0.8004197611    2.0766398898
 H    1.9297336486    1.4724145129    1.4966143885