13

 O   -0.8887599225    1.2906687335    0.0799804889
 C    0.2281688291    0.9632630960   -0.2226953267
 C    1.4369663644    1.9041652537   -0.3336173146
 O    2.4947931191    1.3904727310   -0.6551813226
 C    1.2721427108    3.3248104257   -0.0586451766
 C    2.3017648192    4.2590028515   -0.1308197181
 N    1.7586225221    5.4408081150    0.1895989588
 N    0.4324888142    5.3711767721    0.4735832631
 C    0.1340297471    4.0912502519    0.3246060200
 H    0.5136214673   -0.0830772881   -0.4615148012
 H    3.3424989552    4.1366801713   -0.3834432482
 H    2.2158223971    6.3366536399    0.2383634872
 H   -0.8708282532    3.7398029066    0.4896494199