19

 C    0.0018174488    1.2908107239   -0.4807222466
 N   -0.1038689834    0.1348383222    0.4091491145
 C   -1.3328960858   -0.5665045837    0.3031295994
 C   -1.6500130232   -1.6145653360   -0.8226365998
 C   -0.6279614248   -1.9492262389   -1.7596853740
 N    0.2341622129   -2.2077760257   -2.4905218367
 C   -1.4886592743   -1.9941124326    0.6698509431
 C   -0.3252871094   -2.8466883289    1.1208329789
 O   -2.6889781242   -2.2522487124    1.3385579679
 H    0.9707104845    1.7723704851   -0.3266836060
 H   -0.1007696169    1.0416637785   -1.5477167227
 H   -0.7774766935    2.0159204632   -0.2227744648
 H    0.6900802712   -0.4805576569    0.2806294534
 H   -2.1977438634    0.0481303119    0.5370399540
 H   -2.6662191001   -1.6250311997   -1.2003904356
 H    0.5758381327   -2.6754549807    0.5281111628
 H   -0.1038783732   -2.6476526808    2.1731584610
 H   -0.5768522258   -3.9084024060    1.0156644723
 H   -2.9160302620   -3.1794582824    1.1992230388