18

 O   -0.0994000416    1.4523049555    0.0144200196
 C    0.0338340513    0.0831856405    0.0567617449
 C   -1.2314772386   -0.7768955403   -0.1545522471
 C   -0.4775944491   -1.8630747426    0.6145483654
 C    0.4246524776   -0.8937583394    1.2702916306
 N    0.9917251647   -1.8167413946    0.2472342653
 C    1.0856930955   -0.6996843513   -0.7191784424
 C    1.3802529570   -0.8230712817   -2.1732218323
 C    2.4054303498   -0.2211724084   -1.2174456150
 H    0.7767823999    1.8446065158    0.1057880776
 H   -2.0724918110   -0.3990551890    0.4322006296
 H   -1.5380994520   -0.9660929397   -1.1880679342
 H   -0.8471711639   -2.8124248207    0.9782212073
 H    0.8103307155   -0.7778376989    2.2746941298
 H    1.5831760964   -1.8149984843   -2.5622564064
 H    0.8734084579   -0.1560790987   -2.8636853696
 H    2.5842345612    0.8490314214   -1.2813457554
 H    3.2811872495   -0.8120371936   -0.9722477678