19

 O   -0.1055643810    1.3810522957   -0.0309765024
 C   -0.0219223198   -0.0185737106    0.0042843915
 C   -0.4861752288   -0.6533850104    1.2950711786
 C   -1.3770856465   -0.6547570988    0.0417798880
 C   -1.3146019308   -2.1924707947   -0.0186987381
 C   -0.4528001199   -2.8825758477   -1.0797389000
 O    0.8951241668   -2.7952540144   -0.6107570315
 C    0.8756663494   -2.8862602881    0.8154181157
 C   -0.4120858566   -2.1917487859    1.2644395422
 H    0.6546535434    1.7322537101    0.4441368338
 H    0.7898338615   -0.4469745065   -0.5779422231
 H   -0.5832168833   -0.0477867754    2.1885174124
 H   -2.2529745060   -0.0526096191   -0.1655753183
 H   -2.2916542908   -2.6606586731    0.1069457292
 H   -0.7507358273   -3.9383415602   -1.1880056998
 H   -0.4867842944   -2.4084545108   -2.0646383011
 H    0.8720726939   -3.9428229283    1.1304100535
 H    1.7924184983   -2.4174874926    1.1847080795
 H   -0.8625334680   -2.6560198792    2.1429875697