16

 O   -0.1260147008   -0.0092486164   -0.0690607381
 C   -0.0592442187    1.1879708150   -0.0380175098
 C   -1.2646403040    2.1728476193    0.0624687636
 C   -0.6367951073    3.4160949710    0.6643358330
 C    0.6867804472    3.3700778361    0.5133644221
 C    1.9837845644    3.6854374833    1.2222032748
 C    2.3068377448    2.1490804501    1.0598164947
 C    1.1958775365    2.0759950499   -0.0493294786
 H   -1.6868115381    2.3167720173   -0.9424866545
 H   -2.0628915407    1.7402961598    0.6750489618
 H   -1.1965557113    4.1291903877    1.2585534413
 H    2.6736901179    4.2931074279    0.6273175751
 H    1.9260886271    4.0997186039    2.2315638286
 H    3.3219068541    1.8903695871    0.7533034512
 H    2.0365486836    1.5775126002    1.9499229846
 H    1.6230006351    2.1052023179   -1.0587004999