19

 O    0.1505751922    1.1370716144   -0.5276364869
 C    0.0199398002   -0.2596354109   -0.3058382316
 C   -1.4307728955   -0.5293921169    0.1005781345
 C   -2.4216874928   -0.1692842940   -0.9797291330
 C   -3.0116458553   -1.2369953526   -1.5234220820
 C   -2.4913131856   -2.5184461227   -0.9353461109
 O   -1.5966983983   -3.2147667755   -1.8242819869
 C   -1.7366454771   -2.0420173424    0.3442524270
 O   -0.6130953392   -2.8440084646    0.6224258921
 H    1.0780648566    1.3296076312   -0.6920124522
 H    0.2654864951   -0.8312027855   -1.2166435739
 H    0.6864296386   -0.6153164158    0.4902674317
 H   -1.6151266090    0.0597630352    1.0069984949
 H   -2.6028848061    0.8596328943   -1.2690007524
 H   -3.7406035365   -1.2200549521   -2.3258975568
 H   -3.2659072293   -3.2528452852   -0.6969029793
 H   -1.1659493234   -2.5483477318   -2.3721898989
 H   -2.4257560714   -2.1139090194    1.1941741163
 H   -0.4444309131   -3.3312485659   -0.1991265118