15

 O   -0.0753638977   -0.0794174692    0.2285034942
 C   -0.0011188637    1.0724192230   -0.1153906225
 C    1.2907085223    1.8714387304   -0.0414676716
 C    1.3177222354    2.7862395692    1.2383514408
 C    2.3188823085    1.7517420830    1.8072488761
 N    2.4542772866    1.1307997463    0.4610101188
 C    1.5161924360    2.6099322310   -1.3509067345
 O    0.7065835458    3.3578315202   -1.8370018944
 H   -0.8709435583    1.6360463908   -0.5089628714
 H    1.7388636820    3.7731109095    1.0416765843
 H    0.3674990216    2.9017444230    1.7615765452
 H    3.2575843511    2.1503424519    2.2026949226
 H    1.8672887939    1.0948369061    2.5584103543
 H    2.2920475133    0.1269306757    0.4588026466
 H    2.5087073731    2.4078908491   -1.8087763084