21

 C   -0.0612195493    1.5545645713    0.0143817842
 C    0.0021376754    0.0562782152    0.0054472887
 C    0.6477822253   -0.8640090149   -1.1034090000
 C    1.5330590942   -1.5208556825   -0.0168637223
 C    0.6671253366   -0.8762890425    1.0923891769
 C   -0.6970794483   -1.5865706859    1.2962021376
 C   -1.2370485057   -0.9120866051    0.0109453114
 O   -2.5370450861   -0.3919967446    0.0252835437
 C   -0.7198643477   -1.5721157167   -1.2910740741
 H    0.9423953667    1.9957399482    0.0070342233
 H   -0.6003990952    1.9329541915   -0.8613110075
 H   -0.5831484156    1.9231780134    0.9045780988
 H    1.1391139824   -0.4857102837   -2.0008811132
 H    1.6239487743   -2.6128665999   -0.0237770665
 H    2.5388317787   -1.0897126120   -0.0233095697
 H    1.1742375533   -0.5079989194    1.9852344795
 H   -0.7050915782   -2.6808247345    1.3562070087
 H   -1.2210519841   -1.1733971809    2.1634960839
 H   -3.1594570309   -1.1282442474    0.0263189265
 H   -1.2589945062   -1.1493472200   -2.1443412857
 H   -0.7290282596   -2.6656328497   -1.3631318143