15

 O   -0.8825258595    1.3785191978   -0.0146437479
 C    0.2205202801    1.0522163862   -0.3704028519
 C    1.4533937905    1.9546590839   -0.3684761583
 O    2.5230473903    1.5057863278   -0.7556345993
 N    1.2734104132    3.2132017448    0.0699782481
 C    0.1511394504    4.0168591088    0.5813108126
 C    1.1387214453    5.2097179093    0.7311442681
 C    2.2637074332    4.2846020422    0.1810121617
 H    0.4659707391    0.0378538547   -0.7466121716
 H   -0.6572605349    4.1530990078   -0.1415488661
 H   -0.2781079654    3.6318285427    1.5098096040
 H    0.9103857460    6.0700117978    0.1018293512
 H    1.2900451530    5.5478780008    1.7563373059
 H    3.0778250272    4.0511600352    0.8744458926
 H    2.6980326713    4.5738231101   -0.7811915792