13

 N   -0.1148958932    1.4806054861   -0.2199425527
 C   -0.0286372343    0.0925502424   -0.0655669985
 C   -0.2980584482   -0.8501958397   -1.2365895167
 C   -1.1290014318   -0.9924280692   -0.0063877272
 O   -0.3756285960   -1.7433051058    0.9793602364
 C    0.5892044756   -0.7337235114    1.0530352651
 O    1.4897826598   -0.6492575272    1.8162947287
 C   -2.5372545588   -0.8846481715    0.1298714818
 N   -3.6854558298   -0.7820121045    0.2280075956
 H   -0.1257154477    1.9749444481    0.6641129395
 H    0.6213408900    1.8557610295   -0.8060994970
 H   -0.7736155486   -0.3502356606   -2.0745693537
 H    0.3919125031   -1.6502064662   -1.4837656214