17

 C   -0.2646881363    1.3021157023   -0.0536264128
 O    0.2667570472   -0.0096870692    0.0589014384
 C    0.8279139039   -0.4887525797   -1.1017974164
 C    2.1328838629    0.0040239383   -1.7273295142
 C    2.0988623207   -1.0492507830   -2.8537276170
 O    1.9789612456   -2.2830703801   -2.1506974374
 C    0.8087817785   -1.9730004051   -1.4172029998
 C    0.0274913025   -1.0155623288   -2.2985975678
 O    0.8216586611   -0.8507165528   -3.4596105450
 H    0.5218929560    2.0435484437   -0.2481262216
 H   -1.0122128070    1.3643953982   -0.8559533337
 H   -0.7398768506    1.5317438261    0.9022140834
 H    2.0840865633    1.0219208752   -2.1192706267
 H    2.9957545063   -0.1196594941   -1.0701582958
 H    2.8877308210   -1.0916743666   -3.5993484387
 H    0.4118070502   -2.7561509178   -0.7890492824
 H   -1.0423713752   -0.9873546466   -2.4410418325