20

 C   -0.5583681979    1.7603419826    0.6507187931
 C   -0.1096498988    0.4233178812    0.0983210526
 C   -1.2527955918   -0.3886122614   -0.4918526287
 O   -0.7330031592   -1.5664501715   -1.0875661032
 N    1.1752208229    0.4099787299   -0.6129999828
 C    1.0491862586   -0.3245734230    0.6653049605
 C    1.8729869824    0.1587811913    1.8118887778
 C    1.8272539077   -0.5093713729    3.1196568699
 O    2.9289600615   -0.7134747561    2.2371211552
 H    0.2939084972    2.3524027757    0.9866846250
 H   -1.0789120229    2.3395019466   -0.1207856296
 H   -1.2448946599    1.6303255778    1.4950438025
 H   -1.9791653821   -0.6271733511    0.3015790501
 H   -1.7743182213    0.2314557224   -1.2395300538
 H   -1.4511675968   -2.0331014285   -1.5227733555
 H    1.1237601014   -0.2621218278   -1.3761564898
 H    0.9899091426   -1.4085012697    0.6049993976
 H    2.1584920202    1.2087917150    1.7758962407
 H    2.0449294203    0.0552761857    4.0255938498
 H    1.1740803560   -1.3708421663    3.2584348385