18

 C    0.0965601967    1.5511210251   -0.1796931747
 C    0.0832263752    0.0543706686    0.0598250875
 O    0.9456083536   -0.6696566782   -0.8437049304
 C    1.4383311921   -1.5028690620    0.2274289878
 C    2.9383210798   -1.7144414012    0.1717790275
 C    0.7825274269   -0.5804000823    1.3044347574
 C    1.7130312371    0.3126216770    2.0791174938
 O    1.6912374473    0.4230157343    3.2799502691
 H    1.1096937678    1.9590347958   -0.1527836436
 H   -0.3269856135    1.7673706306   -1.1653555205
 H   -0.5120184347    2.0642480555    0.5724312197
 H   -0.9486229216   -0.3197716606   -0.0161261307
 H    0.9298800192   -2.4784686574    0.2162189806
 H    3.4823376247   -0.7675644366    0.1396047304
 H    3.2762561301   -2.2877796671    1.0415188421
 H    3.1945940481   -2.2802989363   -0.7292236249
 H    0.1214542245   -1.0792958344    2.0139838825
 H    2.4479541168    0.8868136694    1.4745214865