14

 O    0.0698474256    1.3888846475   -0.1227717570
 C    0.1035200162    0.0027768729    0.0147859766
 C    0.3064685830   -0.6117761650    1.4553345349
 C   -1.0739838614   -1.2490442017    1.3240370220
 O   -2.0054118718   -0.1893841727    1.0751458479
 C   -1.2676390648   -0.7240737540   -0.0497998525
 C   -1.9703946292   -1.2176656660   -1.1808380672
 C   -2.5169109467   -1.6225580547   -2.1726287959
 H   -0.6609970345    1.6986761199    0.4279674709
 H    0.8219775692   -0.3847124702   -0.7100613917
 H    1.1251236278   -1.3342878667    1.4904543352
 H    0.4127261019    0.1101911403    2.2683054482
 H   -1.4684515037   -2.1567962063    1.7646591630
 H   -3.0090649217   -1.9824883832   -3.0422859245