21

 C   -0.3657779354    1.4770850048   -0.2414594927
 C   -0.0924188808   -0.0028336002   -0.1156552218
 C    1.3116407664   -0.6015122008   -0.2773134365
 C    2.5330681739    0.2274910044   -0.4244862094
 C    3.1370382559    0.7289568448    0.6515250198
 C    2.5440130044    0.5151605296    2.0209651139
 O    1.1300601649    0.3650506128    1.9929708133
 C    0.6400166148   -0.5839161527    1.0729633477
 C    0.1650631640   -1.8523863883    1.7403094926
 H    0.4518711230    2.0681445485    0.1733315470
 H   -0.4999549622    1.7622571005   -1.2906001950
 H   -1.2797434721    1.7474266532    0.2983605920
 H   -0.8816369454   -0.6391255644   -0.5103266170
 H    1.3466278328   -1.5582177655   -0.7937017462
 H    2.9333009773    0.3870869827   -1.4221760827
 H    4.0582576990    1.2995988928    0.5814300216
 H    3.0184418201   -0.3546255002    2.5090719372
 H    2.7323929412    1.3802256558    2.6652395384
 H   -0.6114821107   -1.6275159174    2.4790757761
 H   -0.2489860273   -2.5510532159    1.0068967920
 H    0.9893017259   -2.3550327945    2.2591732096