13

 O   -0.0889043560    1.3160720143    0.0101146971
 N    1.0501581258    2.1040846400    0.0036132142
 C    2.1961255362    1.4826874758   -0.0110322857
 C    2.4210056812    0.0726135059   -0.0212891991
 C    1.3101436969   -0.7073182154   -0.0150065570
 N    1.1235939955   -2.0572573498   -0.0209853017
 C   -0.2035459298   -2.1943090162   -0.0087510293
 C   -0.9599580317   -0.9764684865    0.0054018122
 C    0.0113507343   -0.0129711150    0.0015492573
 H    3.0340238049    2.1729271508   -0.0151998102
 H    3.4279369563   -0.3267464980   -0.0333401058
 H   -0.6419813550   -3.1872559168   -0.0102418895
 H   -2.0313408188   -0.8631053991    0.0163737775