13

 C    0.3917215327    1.5514639813    0.1419590409
 N    1.1564403097    0.3858251286   -0.3124267100
 C   -0.2527925029    0.2136615601    0.1142221451
 C   -0.4818315150   -0.5766562611    1.3406148747
 N   -0.0412427846   -0.2248795943    2.5208679501
 O   -0.4692805570   -1.2644520638    3.3537890955
 C   -1.1316548893   -2.1159944925    2.5712731785
 N   -1.1872665373   -1.7665605106    1.3270532032
 H    0.7120273129    1.9576488280    1.0958327639
 H    0.0544623927    2.2846441335   -0.5858037118
 H    1.1993724568    0.3659625634   -1.3285446178
 H   -0.9917678023    0.0143952460   -0.6556612523
 H   -1.5494195462   -2.9940170886    3.0416953200