18

 O    0.0180600447    1.4454267719    0.2141697880
 C   -0.0133333852    0.1109429071   -0.2537417273
 C   -1.3952210256   -0.5163261974   -0.0722592171
 C   -1.4526976305   -2.0941237451   -0.1587198498
 N   -1.8080678736   -2.0744445367    1.2693873728
 C   -2.2429533293   -2.6700049359    2.4194120603
 C   -2.5267193488   -1.6252375022    3.2871836621
 C   -2.2838429941   -0.3747527998    2.6305506027
 C   -1.8366979404   -0.7177510009    1.3733002266
 H   -0.1636540011    1.4152403187    1.1606415538
 H    0.2513504972    0.1529303069   -1.3160558979
 H    0.7394397122   -0.5131033615    0.2543851164
 H   -2.1235751443   -0.0104797525   -0.7127643291
 H   -2.2400658768   -2.4938685860   -0.8035014156
 H   -0.5042836939   -2.5948224557   -0.3775626549
 H   -2.3011324268   -3.7380388850    2.5501187549
 H   -2.8690514400   -1.7446166554    4.3046781172
 H   -2.4413064835    0.6087047694    3.0448696967