15

 O   -0.0980460989    0.0115763938   -0.1398481615
 C   -0.0140227680    1.2082396503   -0.0530509844
 N   -1.0657565582    2.1479599823   -0.0945599653
 C   -0.4990412155    3.4732976675    0.2572009358
 C    0.7931423651    3.5149754722   -0.5582434488
 N    1.7556105859    4.0111797461    0.5483492141
 C    2.5620353168    2.7047575086    0.3891078158
 C    1.1332146882    2.1865789331    0.1786036247
 C    0.6410175593    3.2040873037    1.2565256829
 H   -1.9800550463    1.8603743253    0.2204839553
 H   -1.2366488342    4.2728861309    0.3224415707
 H    0.9573375199    3.7403341679   -1.6124250016
 H    3.2345932428    2.7113039222   -0.4725552594
 H    3.0885954736    2.4030526627    1.2983258918
 H    0.6340227594    3.0670516533    2.3391736799