13

 O    0.3656996105    0.5520780426   -1.3928248776
 C    0.0659865058    1.3763175784   -0.5683043406
 C    0.9547464185    1.6506089089    0.5749459210
 N    1.6834725968    1.8813328512    1.4421393702
 C   -1.2143456322    2.2125928850   -0.5990726826
 C   -2.1874307379    1.7974833407   -1.7247208798
 O   -3.3490109184    1.3113778599   -1.0045424498
 C   -3.0670044098    1.4809223728    0.2999267258
 N   -1.9530635640    1.9776189664    0.6578759896
 H   -0.9126628312    3.2660897048   -0.6548828883
 H   -2.5007721042    2.6322373563   -2.3539764404
 H   -1.7913705639    0.9895238481   -2.3423545403
 H   -3.8525814200    1.1682658251    0.9784926828