16

 N   -0.1093537956   -1.2014857045    0.2678655245
 C   -0.0552078799   -0.0538341285    0.1406963042
 C   -0.0054602736    1.4087994188   -0.0219991444
 N   -0.5954528388    2.1131579831    1.1258123681
 C    0.4702971431    2.6643035975    1.8360838281
 N    1.6112514980    2.6641971763    1.2688451151
 C    1.4399208464    1.9873805963    0.0039645989
 C    2.6116857612    1.3008649954   -0.6347301976
 C    2.0764456772    2.5818311718   -1.2269510818
 H   -0.5285356264    1.6618276214   -0.9498495367
 H   -1.3365007017    1.6526504892    1.6349194852
 H    0.2756631551    3.1115429236    2.8053687157
 H    3.5458517666    1.3429463499   -0.0875869338
 H    2.4292104223    0.3701351462   -1.1612499142
 H    1.5256360516    2.5264708560   -2.1606185259
 H    2.6483233143    3.4907675776   -1.0827693754