15

 C   -0.0130904197    1.4379990555    0.0202690634
 N    0.0116951957   -0.0069109194   -0.0169756125
 C    0.0575830832   -0.8072106675   -1.1555683468
 C    0.0716081512   -2.1257484992   -0.8613030219
 C    0.0322162286   -2.2210118502    0.5855092298
 N    0.0258818095   -3.2143742389    1.3998499876
 O    0.0653867072   -4.4215554690    0.7242468975
 C   -0.0070384937   -0.8071693371    1.1289764541
 O   -0.0459658919   -0.4044738087    2.2674029327
 H    0.8860528323    1.8652303786   -0.4371273353
 H   -0.8953488523    1.8358097651   -0.4930434042
 H   -0.0507964677    1.7294859907    1.0713261384
 H    0.0770436530   -0.3332419028   -2.1276031764
 H    0.1050741317   -2.9477132589   -1.5549071673
 H    0.0558970130   -5.0655438482    1.4420905112