13

 O    0.0610113758    1.2646609655    0.1426038454
 C    0.0769049339   -0.0683164405    0.0215782796
 N    0.1438484650   -0.7460961240   -1.1049881399
 C    0.1312880172   -2.0576354638   -0.7140389869
 O    0.1877501544   -3.0555245872   -1.6104825198
 C    0.0563758142   -2.1925824901    0.6571697922
 N    0.0221860682   -0.8517150038    1.1100142360
 C    0.0168027735   -3.2991284281    1.5109193614
 C   -0.0185531769   -4.2388073592    2.2674608102
 H    0.1080106535    1.6247477351   -0.7520498384
 H    0.2330945604   -2.6433152212   -2.4816871980
 H   -0.0329662653   -0.5505135934    2.0677544029
 H   -0.0487351137   -5.0764617392    2.9183143753