19

 C   -0.1351049800    1.5290765539   -0.0005469141
 C    0.0505408835    0.0118081236    0.0035755729
 O   -1.2137527697   -0.6338813834    0.0173966228
 C    1.0074570933   -0.5441877632   -1.1158454019
 C    2.0195086636   -1.2464596785   -0.1982472888
 O    1.1518273410   -1.9098276855    0.7847296261
 C    0.8454840658   -0.5368278888    1.2048217889
 C    2.3329073862   -0.1960593020    0.8992043060
 O    3.2398614695   -0.6121145693    1.8784169218
 H    0.8153437035    2.0686307751    0.0275795698
 H   -0.6604263325    1.8429748500   -0.9106284667
 H   -0.7382858682    1.8381167812    0.8585264856
 H   -1.7093503553   -0.3321683865   -0.7514028934
 H    0.4818488017   -1.2566935038   -1.7549056401
 H    1.4587585019    0.2372966175   -1.7343715755
 H    2.7834093503   -1.8963042964   -0.6264291424
 H    0.4021284332   -0.4583326158    2.1974270321
 H    2.6122808174    0.8178431034    0.6050372080
 H    2.9729980149   -1.5090335114    2.1215991687