13

 C   -0.2159458730    1.3910102260    0.0227280898
 O   -0.0721071778   -0.0328724335   -0.0428598668
 C    0.6782191467   -0.5174243770   -1.0283688499
 N    1.2361451778    0.2914069284   -1.8695050615
 O    2.0092316345   -0.3075968404   -2.8756714385
 C    2.1654212610   -1.6615832888   -2.9647141319
 O    2.8348186517   -2.1400103984   -3.8396547437
 C    1.4582739908   -2.4330307471   -1.9221055573
 N    0.7492834462   -1.9032923140   -0.9975423797
 H    0.7581076378    1.8703854017    0.1535889712
 H   -0.6774821555    1.7735188075   -0.8918080582
 H   -0.8560259137    1.5767143459    0.8845099877
 H    1.5653645333   -3.5150053202   -1.9689111211