19

 O   -0.0627632359    1.3899683144    0.1225304448
 C    0.0656836856   -0.0354137272    0.0024340105
 C    0.6725935434   -0.4332485483   -1.3260939010
 C   -0.2187524041   -1.0001450646   -2.1369655601
 C   -1.5917629159   -1.0946326984   -1.5150311132
 C   -1.3553559885   -0.6806763403   -0.0413873536
 C   -1.3084349605   -1.8463589011    0.9844018402
 C   -0.0316644584   -1.6129231462    1.7555213074
 C    0.7179692476   -0.6543793156    1.2182318783
 H    0.7866470675    1.7850883462   -0.1004405150
 H    1.7162740339   -0.2502276587   -1.5638606859
 H   -0.0126177278   -1.3447020840   -3.1454784865
 H   -2.2920607121   -0.4203200526   -2.0254011058
 H   -2.0222929329   -2.0992646548   -1.6018199041
 H   -2.0783488800    0.0693220467    0.2848357622
 H   -2.1918370474   -1.8713259285    1.6334563619
 H   -1.2757623891   -2.8212451966    0.4786446065
 H    0.2336974402   -2.2006453024    2.6283484639
 H    1.6901259243   -0.3311869478    1.5762601395