14

 N    0.0113351301    1.4305519250    0.1541446523
 C   -0.0013177455    0.0368359753    0.0452146353
 C   -1.0845266271   -0.7988582827    0.0261507511
 N   -0.6076569737   -2.1157684063   -0.0024640486
 C   -1.3905431368   -3.2573487385   -0.0296334775
 O   -0.9569280795   -4.3813132604   -0.0654105368
 C    0.7769269712   -2.0937774462   -0.0083459402
 C    1.1788129085   -0.7928311192    0.0237462862
 H    0.7861449368    1.8602897389   -0.3331587561
 H   -0.8553216020    1.8671912367   -0.1294982366
 H   -2.1430317136   -0.5975259792    0.0360223561
 H   -2.4679327409   -3.0115185165   -0.0142264024
 H    1.3227635483   -3.0212052991   -0.0341386396
 H    2.2001275943   -0.4419250577    0.0387312869