21

 O    0.1530510246    1.4148173524    0.0054336334
 C    0.1322470185    0.0053966065    0.0278151569
 C   -1.3018185523   -0.5215722085    0.1174200969
 O   -2.0815517380    0.0796663386   -0.9260924132
 C   -1.3872332324   -2.0477843509    0.0948215734
 C   -2.8173592125   -2.5745586335    0.2582824665
 C   -2.9044968089   -4.1072800628    0.1702105841
 C   -4.3344084972   -4.5941251242    0.2345356251
 O   -4.7578541057   -5.3982764603    1.0234631474
 H   -0.5901274680    1.6723520242   -0.5559338998
 H    0.6148309461   -0.4216326606   -0.8720548838
 H    0.7156210097   -0.3218994922    0.8955995792
 H   -1.7513446193   -0.1364399012    1.0407520772
 H   -1.7806694676   -0.2922510642   -1.7645556723
 H   -0.9621524999   -2.4162714007   -0.8513725444
 H   -0.7472891507   -2.4494237333    0.8910118377
 H   -3.2166575827   -2.2432416957    1.2250640984
 H   -3.4545323479   -2.1186809341   -0.5082697856
 H   -2.4895042546   -4.4364729839   -0.7944432063
 H   -2.3336355770   -4.5946361873    0.9663319766
 H   -5.0059957440   -4.1338558383   -0.5292800274