14

 O   -0.1447366698    0.0464257094   -0.5018712810
 C   -0.0651460047    1.2070725562   -0.1656463015
 N    1.0954795934    1.8430239772    0.1696971242
 C    2.3645216575    1.1813714416    0.1746383529
 C    3.5240743423    1.8478565035   -0.5825345812
 O    3.7414655888    3.0956353706    0.0724856740
 C    4.3903210854    1.9193311761    0.6194421139
 C    3.2881244223    1.2709947690    1.4539098210
 O    3.1831279334    0.8953178290    2.5788150584
 H   -0.9383884774    1.8826941477   -0.0941894221
 H    1.0703117297    2.8179351316    0.4255186553
 H    2.1983941982    0.1328613412   -0.0898966686
 H    3.8183882841    1.7547322435   -1.6203837096
 H    5.4673896469    1.9405498233    0.7222659644