16

 O   -0.0142090300   -0.0236480531   -0.3668820455
 C   -0.0602022827    1.1310642143   -0.0383904688
 C   -1.3609876651    1.8652822494    0.2111074883
 C   -1.1406433020    3.3041588664    0.6136644146
 C    0.0097815607    3.7208727812    1.4892240198
 C   -0.0349797315    4.1374742376    0.0246434698
 C    1.2542750150    3.2957248663   -0.2311731487
 C    1.2975542690    2.8909643138    1.1909255496
 N    1.1512190970    1.8722450146    0.1361038149
 H   -1.9644740812    1.7966379369   -0.7014622483
 H   -1.9121684673    1.3171131499    0.9840431408
 H   -2.0491143016    3.8709151876    0.8027806296
 H   -0.1047049278    4.3346379372    2.3722524920
 H   -0.1893291381    5.1219421366   -0.3955397058
 H    2.0463322562    3.5698134097   -0.9168002980
 H    2.1312398794    2.7759877717    1.8723307260