17

 C   -0.1093341686    1.4366129386   -0.0689746062
 C    0.0205952168   -0.0699235283    0.0761606981
 N    1.0643574892   -0.6427919327   -0.8400864086
 C    1.8412054491   -1.1141922008    0.2931421183
 C    0.8431270949   -0.5346348656    1.2866929356
 C    1.0253669383   -2.0296741343    1.2132707388
 O   -0.0272480394   -2.8086163547    0.7305481941
 C    1.7744807436   -2.6225591737    2.2990024042
 N    2.3869806595   -3.1294846593    3.1399437043
 H    0.8667280049    1.9216359544    0.0235512237
 H   -0.5212097981    1.6866828372   -1.0512204672
 H   -0.7781118008    1.8416474651    0.6984399441
 H   -0.9551399026   -0.5572882814   -0.0091924648
 H    0.7223476851   -1.3906901149   -1.4389653174
 H    2.9255754212   -1.1335443563    0.2871824697
 H    1.0035928984    0.0178587095    2.2033010220
 H    0.3371244085   -3.6290520428    0.3780053713