23

 C    0.0571321143    1.6241287789    0.1184072164
 C   -0.0444840739    0.1003488974   -0.0016155093
 C    0.6800019324   -0.4874167185   -1.2338094015
 C    2.1348870130   -0.0776258962   -1.2903156508
 C    3.1171947369   -0.9213058759   -0.9820966142
 C    2.8466593661   -2.3315268226   -0.5409373255
 O    1.4779951800   -2.5865597563   -0.2983696808
 C    0.6237624135   -2.0304542907   -1.2974601860
 C   -0.7522885512   -2.6492165483   -1.0983219710
 H    1.0907811623    1.9509506503    0.2659333565
 H   -0.3246389053    2.1220475481   -0.7808702718
 H   -0.5283709414    1.9864224059    0.9691145396
 H    0.3692046139   -0.3727989099    0.8961555804
 H   -1.1032944606   -0.1788510021   -0.0462050727
 H    0.1791021659   -0.1010056565   -2.1344013925
 H    2.3656010970    0.9378071860   -1.5999783485
 H    4.1611263404   -0.6261817972   -1.0533772727
 H    3.2443397660   -3.0380382133   -1.2945501991
 H    3.3712336896   -2.5498383371    0.3976762746
 H    1.0016868923   -2.3268798828   -2.2910616166
 H   -1.1149000287   -2.4835375390   -0.0808688933
 H   -1.4745756219   -2.2221620208   -1.8011510265
 H   -0.7024088205   -3.7285055193   -1.2655766747