23

 C    0.6792422990    1.3902475128    0.2356103162
 C   -0.2456049812    0.2159807553   -0.1091887215
 C    0.1776702290   -0.4717453575   -1.3859333126
 O    1.3495421329   -1.2974700956   -1.3332012169
 C    0.0919999555   -1.9156993310   -1.6561665066
 C   -0.4292500067   -2.9512234541   -0.6893109627
 C    0.2712700813   -4.3020035934   -0.8660561925
 C   -0.1593064657   -5.3221784201    0.1872218783
 O   -0.0542475446   -4.7515931162   -2.1818993281
 H    1.7075310112    1.0411171826    0.3683431074
 H    0.6808228926    2.1405115901   -0.5626459414
 H    0.3632249612    1.8845574713    1.1589739428
 H   -0.2554989048   -0.4993177554    0.7182458672
 H   -1.2757962047    0.5749951376   -0.2338326286
 H    0.1566038265    0.1842499508   -2.2612881494
 H    0.0163209365   -2.2211464227   -2.6998476896
 H   -0.2931403079   -2.6145052338    0.3413207011
 H   -1.5043606244   -3.0970689814   -0.8576622089
 H    1.3569179680   -4.1337244805   -0.7846476008
 H   -1.2400999177   -5.4898256685    0.1382247296
 H    0.3412671283   -6.2834255368    0.0242405664
 H    0.0972584111   -4.9811758543    1.1957266393
 H    0.4623307546   -5.5424747391   -2.3637395788