21

 C   -0.1253094321    1.4888073600    0.1619367053
 C    0.1333388799   -0.0146944272    0.1077400184
 C    0.8143076375   -0.5086265609   -1.1787702150
 C    1.2617181181   -1.9358788532   -0.8298239603
 O    2.3481763081   -2.4430744222   -1.5856715903
 C    1.6961544828   -1.8372939163    0.6613289760
 C    1.0722325412   -0.5405496945    1.2197808518
 C    1.3285116804   -3.1012960631    1.4053297121
 O    0.6878348069   -3.1537851419    2.4246361357
 H    0.8112966766    2.0503060924    0.0648581156
 H   -0.7928478460    1.8102693000   -0.6446071339
 H   -0.5888130648    1.7759659487    1.1116307994
 H   -0.8299289557   -0.5359560121    0.2007982975
 H    0.1658564520   -0.4682109372   -2.0608126365
 H    1.7098261537    0.0908998081   -1.3891071788
 H    0.3963257539   -2.6146360240   -0.9172152529
 H    2.0486880918   -2.5804643434   -2.4901041111
 H    2.7931041741   -1.7963072691    0.6487348396
 H    1.8544556491    0.1987871259    1.4222777348
 H    0.5484942804   -0.7314947471    2.1592889030
 H    1.6982340019   -4.0304960228    0.9141530495