14

 C    0.0317206604    1.4834292344    0.0823546199
 C   -0.0327299312    0.0019935267    0.0045073391
 N   -1.0669236436   -0.7307246718    0.0766454407
 C   -0.5935181530   -2.1164290632   -0.0514083229
 C   -1.2115669930   -2.8420979818   -1.1516303080
 C   -1.7064782225   -3.4423745842   -2.0651826634
 C    0.9384575796   -1.9868810254   -0.2165823887
 O    1.7885014311   -2.8045178291   -0.3452209693
 O    1.1927579085   -0.6252707557   -0.1645081538
 H    0.6630438792    1.7912493816    0.9216997940
 H    0.4808729489    1.8879124871   -0.8301130408
 H   -0.9735317401    1.8839169658    0.2088894794
 H   -0.7828811351   -2.6501578148    0.8904289754
 H   -2.1480854393   -3.9756896696   -2.8707445916