18

 C   -0.1283735274    1.2820895648   -0.1591668472
 N    0.1243831046   -0.1432528353   -0.0848445114
 C    0.7667402901   -0.8043663896   -1.1012415045
 O    1.0195100243   -0.3091784526   -2.1832165570
 N    1.1617907590   -2.1051576297   -0.7446403490
 C    0.2492536433   -3.1410214664   -0.2759884219
 C    0.9439885310   -3.2569353132   -1.6004552934
 C    0.1688104631   -3.1528640012   -2.8929387024
 H    0.6270539518    1.8695523179    0.3788760528
 H   -0.0999221120    1.5657889356   -1.2115833985
 H   -1.1143790374    1.5185882425    0.2528270470
 H    0.1359240740   -0.5791914413    0.8227907411
 H    0.5824789082   -3.7182287197    0.5831584268
 H   -0.8166084313   -2.9213492129   -0.2970243574
 H    1.8103232826   -3.9155456734   -1.6461693546
 H   -0.7373766842   -2.5534617113   -2.7723111668
 H    0.7740492908   -2.6804561593   -3.6700702367
 H   -0.1206061706   -4.1536812950   -3.2302801970