19

 C    0.0135865811    1.5041343433    0.0503182488
 C   -0.0470604976    0.0114710185   -0.0155233696
 C   -0.0937495588   -0.7608293029   -1.1057247101
 C    0.0171870765   -2.2356166396   -0.7562951663
 C    1.5104289557   -2.6311804845   -0.7979443201
 O    2.0848994815   -1.9660202509    0.3367262177
 C    1.0929982215   -1.8986193639    1.3275659873
 C   -0.2383862477   -2.2711778836    0.7729101733
 C   -0.0160320578   -0.8366239322    1.2178962162
 H    0.9507043554    1.8376300509    0.5133883218
 H   -0.0536604079    1.9535578209   -0.9438828473
 H   -0.8002856335    1.9099710382    0.6645547914
 H   -0.0505392199   -0.4009939777   -2.1281660304
 H   -0.6154419616   -2.9049179921   -1.3450061808
 H    1.6398749266   -3.7219749421   -0.7108598131
 H    2.0363578243   -2.2798279805   -1.6899400066
 H    1.4328285490   -2.2007912497    2.3131867520
 H   -0.9331409134   -2.9601611979    1.2358373164
 H   -0.4305944233   -0.4629875443    2.1495356696