20

 C    0.1962520990    1.3750839883    0.5005670761
 N    0.0210804114    0.0797336871   -0.1637021829
 C   -1.2862140393   -0.4624176755   -0.1035271859
 C   -1.7918426964   -1.2256739682    0.9362398569
 C   -1.1537404193   -1.6738311226    2.2064876646
 N   -3.0640612264   -1.5309627294    0.5721210362
 N   -3.4161291508   -1.0412644682   -0.6363000363
 C   -2.3407489799   -0.3777000952   -1.0543830023
 C   -2.3298351855    0.3073097041   -2.3844787732
 H    1.2313558490    1.7069765327    0.3733113568
 H   -0.4737556998    2.1665577394    0.1275552214
 H    0.0107626268    1.2622341032    1.5728847412
 H    0.3274457257    0.1469251289   -1.1270225724
 H   -1.4512848562   -1.0613014054    3.0666430444
 H   -1.4041932948   -2.7142587153    2.4408322279
 H   -0.0682250732   -1.5980635993    2.1014646184
 H   -3.7340873671   -2.0740732334    1.0889623911
 H   -2.0600090561    1.3656289807   -2.2937122518
 H   -1.6118558262   -0.1519021384   -3.0753351700
 H   -3.3203133511    0.2429221464   -2.8398651401