21

 C   -0.1111661493    1.5083808358    0.0559497020
 C    0.0343813521   -0.0096506955    0.0124702060
 C   -1.2822217654   -0.6724567500   -0.3856145959
 O   -1.3727400086   -2.0370197807   -0.0345348082
 C   -1.1836064552   -2.2204051334    1.3565940440
 C    0.2804411541   -1.9907955842    1.7293730168
 C    0.7997159503   -0.6263830999    1.2285375564
 C    1.9766697600   -0.6987817879    0.2330687922
 O    1.1197448711   -0.3874062197   -0.8805432591
 H    0.8505102110    1.9817217758    0.2732865387
 H   -0.4612569697    1.8858658908   -0.9109599072
 H   -0.8283348525    1.8148992480    0.8248730209
 H   -2.1198988818   -0.1153301453    0.0691808591
 H   -1.3835351124   -0.6166621255   -1.4742521276
 H   -1.8473290969   -1.5434453431    1.9227120419
 H   -1.4846742901   -3.2476805442    1.5818243904
 H    0.4086888737   -2.0794722582    2.8136265859
 H    0.8655789718   -2.7960681316    1.2726351906
 H    0.9351658482    0.0722455871    2.0570883689
 H    2.7552231805    0.0627469961    0.3786946022
 H    2.4551473990   -1.6785873544    0.1209671319