23

 C   -0.2077466653    1.4183075202   -0.1619459802
 C    1.2380134728    1.0595153872    0.0880165147
 C    0.1899562706   -0.0227474297    0.0312198333
 C   -0.2184189999   -0.7727377837    1.2889073248
 C   -1.6599577827   -1.3037180040    1.1931756683
 C   -1.9760675925   -2.2742636281    2.3369057158
 C   -1.0469174228   -3.4965209006    2.2924595125
 C    0.3819549837   -3.1052902299    2.0163589235
 C    0.7484780089   -1.8960033746    1.5926682587
 H   -0.7526066556    1.9037584109    0.6417555992
 H   -0.4928064846    1.7512926380   -1.1537391583
 H    1.9401643302    1.1469136136   -0.7337658246
 H    1.6584058664    1.3076708987    1.0575320045
 H    0.1950862534   -0.6397740181   -0.8647309719
 H   -0.1728588437   -0.0480626382    2.1193180912
 H   -2.3643525901   -0.4649075935    1.1859802127
 H   -1.7823260239   -1.8242103071    0.2332649201
 H   -1.8428962163   -1.7553713624    3.2952139530
 H   -3.0235826187   -2.5919589021    2.2952086341
 H   -1.1028196230   -4.0519894557    3.2375292092
 H   -1.3875794724   -4.2038085839    1.5208713254
 H    1.1409347338   -3.8665404085    2.1850178431
 H    1.8019946416   -1.6761403085    1.4321458607