25

 C    0.8963185786   -0.4211528722   -1.1470425993
 C   -0.0283461307    0.0647550442   -0.0202893273
 C   -0.1443249956    1.5954847347   -0.0319110735
 C   -1.4358863616   -0.5749789010   -0.0799851407
 O   -2.1262461113   -0.1856637483   -1.2714424069
 C   -1.4733970757   -2.1072272449    0.1034350842
 C   -0.7419004981   -2.5874256037    1.3646625513
 C   -2.9260266086   -2.5947135690    0.1131177369
 O   -2.9151905331   -4.0173840620    0.0797892740
 H    1.8829883014    0.0439712985   -1.0595443276
 H    1.0410512231   -1.5057480898   -1.1306419550
 H    0.5034002017   -0.1454659813   -2.1334317806
 H    0.4187283139   -0.2309939021    0.9363513900
 H   -0.6401550334    1.9365699393   -0.9451893243
 H   -0.7330230971    1.9541465201    0.8192973170
 H    0.8431975997    2.0649910053    0.0215361366
 H   -2.0306580945   -0.1254409348    0.7276514870
 H   -1.6877902585   -0.6144174139   -2.0144118516
 H   -0.9978722542   -2.5726398484   -0.7725363136
 H   -1.0912224869   -2.0431994334    2.2508334498
 H   -0.9426385212   -3.6494805641    1.5208043549
 H    0.3404218367   -2.4523242258    1.2934696673
 H   -3.4269224400   -2.2240785783    1.0240236398
 H   -3.4578788517   -2.1781582041   -0.7508940526
 H   -3.8264443230   -4.3229046751    0.0929890342