21

 O    0.1070412893    1.4046005406   -0.1917363764
 C    0.0607477271   -0.0038624372   -0.0250753212
 C    0.6690462334   -0.5387778444    1.3047680272
 C   -0.5060513959   -1.3124579697    1.9460593201
 C   -1.3557049636   -0.4599194710    2.8989036689
 C   -1.8550524816    0.8130343039    2.1889007258
 C   -2.3497482911    0.5034097182    0.7631641949
 C   -1.4111112221   -0.4834189019    0.0537592246
 O   -1.3141435925   -1.6853000644    0.8190263242
 H    1.0242045634    1.6604401553   -0.3252284338
 H    0.5461167785   -0.4961264481   -0.8778759890
 H    1.5114127384   -1.2077515632    1.1122493189
 H    1.0255661508    0.2871614002    1.9266483674
 H   -0.1884221993   -2.2390342339    2.4312090055
 H   -2.2044467559   -1.0737157471    3.2221895608
 H   -0.7805778763   -0.2035780784    3.7968429534
 H   -2.6499460498    1.2867833415    2.7744262565
 H   -1.0403881288    1.5409768536    2.1219207166
 H   -3.3385143066    0.0313047525    0.7971150588
 H   -2.4411488156    1.4244314758    0.1805318242
 H   -1.8064953419   -0.7552779824   -0.9283236475