20

 C   -0.1728428905    1.3699577391   -0.0070427221
 O    0.1408057264   -0.0032839978    0.0671126358
 C    0.7428487255   -0.5379351351   -1.0974884312
 C    1.3158921649   -1.9019009673   -0.7310439002
 C    2.0562585146   -2.5018435333   -1.9240020832
 N    1.2366468589   -2.4574127488   -3.1279226744
 C    0.2451764797   -1.5586091765   -3.4163744309
 O   -0.2495573056   -1.4849679544   -4.5256274976
 C   -0.2521738863   -0.6996053453   -2.2546735343
 H    0.7115310919    1.9738815459   -0.2642569626
 H   -0.9628601852    1.5855977443   -0.7403051583
 H   -0.5275133802    1.6702755967    0.9818477889
 H    1.5677333304    0.1246028606   -1.4164810938
 H    1.9984381165   -1.8049683758    0.1175448644
 H    0.4943306149   -2.5587239924   -0.4233098067
 H    3.0018342193   -1.9599256236   -2.0808387412
 H    2.3192365713   -3.5445319470   -1.7166259957
 H    1.5480665037   -2.9805447666   -3.9339934485
 H   -1.1581841594   -1.1786290647   -1.8617997493
 H   -0.5589766510    0.2561154219   -2.6843876989