12

 N    0.0148830839    1.1283302965    0.1661757597
 H    0.1482261327    0.1891292951   -0.1767294099
 H    0.7210638959    1.7712102595   -0.1635808278
 C   -1.2708450445    1.5993962823    0.0691366245
 O   -1.4017428603    2.9385876300    0.0718315578
 C   -2.7613905593    3.2093907344    0.0407106552
 C   -3.4540323501    2.0316812493    0.0181726835
 C   -2.4975642571    0.9815257090    0.0354787632
 C   -3.1601752772    4.5551312465    0.0323206087
 N   -3.5074336953    5.6625014591    0.0232177524
 H   -4.5281676122    1.9379001499   -0.0100055207
 H   -2.6839575965   -0.0796720516    0.0282018535