18

 C   -0.0065152353    1.5686604586   -0.0396247761
 C    0.1594064121    0.0506098152   -0.0115406424
 C    0.9914282309   -0.5046257834   -1.1850848429
 C    1.0560809556   -2.0262243208   -1.1910960299
 O    1.0756178789   -2.6921501499   -2.2067273663
 N    1.0500439259   -2.5956848700    0.0566427105
 C    1.2594374287   -1.8919058508    1.3072693267
 C    0.7748441790   -0.4374349498    1.2905816262
 O    0.9105603309    0.2485937710    2.2738422373
 H    0.9674962097    2.0671080572   -0.0121718887
 H   -0.5261596537    1.8804659516   -0.9500182365
 H   -0.5751427703    1.9127745051    0.8266750298
 H   -0.8326119324   -0.4256147833   -0.0650753907
 H    0.5777982812   -0.1941701221   -2.1463369302
 H    2.0153499280   -0.1091096292   -1.1371616692
 H    1.1371320074   -3.6020722603    0.0547703811
 H    0.7185411484   -2.4025830329    2.1118405091
 H    2.3172397648   -1.8706338062    1.6094420019