18

 C    0.0538823657    1.5911506521    0.3313997142
 C    0.0001216529    0.0994833356   -0.0521004638
 C   -1.3702945220   -0.4847118654   -0.0999084506
 C   -2.1805364672   -0.8780037940   -1.1325706970
 N   -1.9081903330   -0.8733649698   -2.5100747942
 N   -3.3822319546   -1.3910371655   -0.6698953476
 C   -3.2948702778   -1.3022025233    0.6319352574
 O   -4.2258046830   -1.6838751710    1.5251787166
 N   -2.1335203738   -0.7618883849    1.0526489361
 H    1.0854552674    1.9584261218    0.3426454395
 H   -0.5194942857    2.1977050257   -0.3764591189
 H   -0.3709991716    1.7611448644    1.3265932977
 H    0.4524218979   -0.0409335340   -1.0402416040
 H    0.6325864110   -0.4701741494    0.6445073546
 H   -1.5506182247    0.0137898586   -2.8405543935
 H   -2.7493817619   -1.1039497904   -3.0239712371
 H   -4.9616247821   -2.0365993204    1.0097528206
 H   -1.8635925073   -0.6160669103    2.0098457598