18

 C    0.5896473335    0.8587536777    1.5720582259
 C    0.4018349460   -0.2361127743    0.5464851754
 C    0.1238484177    0.0109815553   -0.8953184473
 C   -0.0043986557    1.3867745184   -1.5089600711
 C    1.4891463062   -0.5938371346   -0.4933314023
 C    2.7329917849    0.1830020201   -0.5999917157
 O    2.8789520199    1.3744567328   -0.4239266883
 C    3.9159065187   -0.6344889242   -0.9681682983
 N    4.8403305056   -1.2675402718   -1.2548940484
 H    1.1518527007    1.7059101586    1.1799537580
 H   -0.3876128368    1.2170543248    1.9133736833
 H    1.1265855897    0.4765134292    2.4459390685
 H   -0.0595967079   -1.1333043958    0.9517996888
 H   -0.5075551640   -0.7351309074   -1.3715518980
 H    0.7128552793    2.0961097389   -1.0967906452
 H    0.1554894216    1.3396988795   -2.5907630029
 H   -1.0147461253    1.7744604189   -1.3392235401
 H    1.6197485159   -1.6499183962   -0.6995039221