19

 O   -0.2716539008    1.6516531025   -0.1088261290
 C    0.0576684471    0.2798066521    0.1236644817
 C   -1.1814405835   -0.6238439206    0.0635973390
 C   -2.1372055088   -0.3430192249    1.2395651101
 O   -2.5993740500    0.9926934773    1.3192622973
 N   -1.7156614971   -0.5253242229   -1.3070938658
 C   -2.8503963945   -1.3618185245   -1.6784102880
 C   -3.0161117374    0.1102285510   -1.5699858290
 H   -0.6238684072    1.6926830653   -1.0062456746
 H    0.7953368414   -0.0653370216   -0.6114891341
 H    0.5146675297    0.2421850208    1.1177304749
 H   -0.8270142567   -1.6572363216    0.1856608287
 H   -3.0243096694   -0.9856821837    1.1759436574
 H   -1.6092952606   -0.6349619062    2.1638359117
 H   -1.8721752287    1.5610828141    1.0233102599
 H   -2.7777615189   -1.8447983778   -2.6494550709
 H   -3.3159092183   -1.9719569876   -0.9062881274
 H   -3.5752795301    0.5049570417   -0.7292104670
 H   -3.0509063063    0.7153627465   -2.4729191350