19

 C    0.0560714571    1.4417666660    0.0725425593
 C   -0.0134065604   -0.0659629328   -0.0207571415
 C    0.2061993488   -0.6903514220   -1.4467183171
 C   -1.0763916805   -1.5022353929   -1.2704861002
 C   -1.1800075708   -2.1695994471    0.0803519506
 O   -0.1516472910   -2.7261228137    0.8541095619
 C    1.0344374766   -1.9639619312    0.9421013349
 O    0.8307357286   -0.5800816999    1.0141139555
 C   -1.4167065248   -0.7054672481    0.0191767699
 H    1.0726483901    1.7914205539   -0.1317525725
 H   -0.6273752720    1.9032624356   -0.6456730791
 H   -0.2231629605    1.7678834115    1.0791371808
 H    0.0803685207    0.0881927499   -2.2037854301
 H    1.1393822678   -1.2199168071   -1.6534113638
 H   -1.7416043692   -1.7884886698   -2.0772973330
 H   -2.0629337666   -2.7903154082    0.1924708663
 H    1.5218034219   -2.2565937638    1.8756865897
 H    1.6926320966   -2.2143854115    0.0954046795
 H   -2.3275564526   -0.2111341190    0.3361692890