19

 C    0.7892820890    1.3086904544    0.6528825963
 N    0.7294377837   -0.0856892873    0.2784763995
 C    1.0573456084   -0.5344710194   -0.9493507759
 O    1.4361232376    0.1775397929   -1.8681467226
 C    0.8727282526   -2.0850058046   -0.9898844396
 O    0.4798519248   -2.6289495779    0.0403724388
 N    1.1412545838   -2.7767290953   -2.1243468625
 C    0.9520553939   -4.2222334785   -2.1073583481
 C    1.6089408761   -2.2449319778   -3.3997717063
 H    1.4868878154    1.4653527647    1.4831243187
 H    1.1339012339    1.8737977806   -0.2143669461
 H   -0.1967467418    1.6798828580    0.9536973716
 H    0.4346593914   -0.8045969805    0.9257559890
 H    0.6040640428   -4.5251833559   -1.1227272458
 H    0.2160866964   -4.5128402151   -2.8665376883
 H    1.8979554100   -4.7267747120   -2.3379451497
 H    2.5668275514   -2.7119516690   -3.6613809744
 H    0.8879225622   -2.4971696279   -4.1875570067
 H    1.7276951982   -1.1686587793   -3.3395890880