18

 C   -0.3126352291    1.3027063497   -0.0993898108
 O    0.2405871963    0.0103953919    0.0918835246
 C    0.8030419676   -0.5335903754   -1.0503765809
 C   -0.0680999952   -1.1093392036   -2.1271503521
 C    0.7958293895   -2.0227199894   -1.2611497614
 C    2.1366735118   -2.3890058543   -1.8427172508
 O    2.5717433428   -3.4947872482   -2.0734515253
 N    2.7948665127   -1.2006058948   -2.0760122754
 C    2.1860241870   -0.0253992202   -1.4785245825
 H    0.4553470582    2.0433446841   -0.3635969480
 H   -1.0808246255    1.2989662336   -0.8846199400
 H   -0.7687380337    1.5940880265    0.8488967616
 H   -1.1308531101   -1.1444150518   -1.9142721976
 H    0.1932230730   -0.9754114495   -3.1721428334
 H    0.3192997911   -2.7138423847   -0.5799959558
 H    3.7443631012   -1.2145408850   -2.4122406918
 H    2.1326844387    0.8069239603   -2.1908540495
 H    2.7296598937    0.3166925708   -0.5869046008