19

 O    0.0854021375    1.4965908634    0.1531715804
 C    0.0591182156    0.0723094715    0.0863618656
 C   -1.4152739821   -0.3705508336    0.1750249358
 O   -2.0698117937   -0.5557782358   -1.0621320356
 C   -2.0164169771    0.5287321722   -1.9850455452
 C   -0.9187909659    0.2900528217   -3.0242534040
 C    0.5206169316    0.3547921223   -2.4652479577
 C    0.6966593578   -0.4814948361   -1.2057604821
 O    1.2920009562   -1.5324928377   -1.1847759279
 H    1.0005438157    1.7798074707    0.2498222693
 H    0.6054159553   -0.3691266748    0.9299654272
 H   -1.4647520720   -1.3435221928    0.6702746459
 H   -1.9360370664    0.3715571671    0.7986938184
 H   -2.9904850450    0.5583573858   -2.4862068922
 H   -1.8719414305    1.4826025696   -1.4630516689
 H   -1.0901120923   -0.6974836537   -3.4660645015
 H   -1.0167837238    1.0275351132   -3.8293301034
 H    1.2312160028   -0.0126408326   -3.2091970230
 H    0.7592633863    1.3962517095   -2.2279756212