21

 C   -0.0491811070    1.6257045027   -0.0749193699
 C   -0.0080455605    0.1022323076   -0.0052674663
 C    1.1395064952   -0.5343269009   -0.8672145739
 C    2.0055394475   -0.6794053927    0.4092863959
 C    0.7169324928   -0.5147581263    1.2514443478
 C    0.7646527857    0.2657315709    2.5497195473
 O    1.5357283381   -0.5006719201    3.4650034944
 C   -1.3674708762   -0.5016862893   -0.2586933505
 O   -2.3814910469    0.1136827185   -0.4700070529
 H    0.9449565642    2.0589422466    0.0664805514
 H   -0.4246072015    1.9448227508   -1.0513426817
 H   -0.7215975118    2.0422903273    0.6800798822
 H    0.8480548866   -1.5054630151   -1.2797892822
 H    1.5176655473    0.0889706283   -1.6808536813
 H    2.5713943206   -1.6037192433    0.5362025263
 H    2.6893342906    0.1640935500    0.5433336031
 H    0.2908243341   -1.5021277770    1.4671441449
 H    1.2172645022    1.2549765999    2.3830232999
 H   -0.2583729766    0.4311404287    2.9264230324
 H    1.6287220430    0.0048395990    4.2777738910
 H   -1.3718511874   -1.6185742856   -0.2355509878