19

 C    0.0338307702    1.5429734078   -0.0854991491
 C    0.0176150492    0.0259368320   -0.0137734399
 O    0.6626382137   -0.4863483472   -1.1654872302
 C    0.7058629065   -1.8901515440   -1.2044805973
 C    1.4277137096   -2.2852862072   -2.4987502101
 C    1.5438172167   -3.7233734912   -2.6685024555
 C    1.6366796690   -4.9204844157   -2.8029795448
 C    1.7311751445   -6.3506636949   -2.9338953311
 O    2.2535602119   -6.9239700699   -3.8624919939
 H    1.0616613368    1.9145887308   -0.1227603692
 H   -0.4893721820    1.8906191332   -0.9806651802
 H   -0.4586781840    1.9699900801    0.7929952509
 H    0.5333574029   -0.3259950131    0.8953234777
 H   -1.0179443231   -0.3499935034    0.0371759088
 H    1.2448034760   -2.2972405895   -0.3335565220
 H   -0.3084041600   -2.3212024905   -1.1925050193
 H    0.8902370355   -1.8531362914   -3.3516770104
 H    2.4253510596   -1.8294096440   -2.5027375065
 H    1.2748045870   -6.9123425618   -2.0929516279