21

 C    0.7883127350    1.5554654484   -0.6259382507
 C   -0.0222182732    0.4693864315    0.0846765616
 C   -0.0639947488   -0.8285852740   -0.7390812716
 N    0.5126672849    0.3246239609    1.4481246188
 C   -0.2264542733   -0.4834706777    2.3785773263
 C   -0.0935804135   -2.0098058377    2.4758799038
 C    0.5153915407   -1.1276092105    3.5296503901
 C   -1.5376823212    0.0528506066    2.6817426444
 N   -2.5951382149    0.4613308248    2.9116485689
 H    1.8317252607    1.2411339134   -0.7565801549
 H    0.3794215566    1.7581434784   -1.6199904063
 H    0.7829533922    2.4816276706   -0.0462807795
 H   -1.0508600828    0.8328018928    0.2030183028
 H    0.9448719276   -1.2384934428   -0.8735235903
 H   -0.6831165889   -1.5917197464   -0.2607743847
 H   -0.4804950395   -0.6386591462   -1.7337449600
 H    1.4850110214    0.0370786140    1.4287352106
 H   -0.9710903340   -2.5924314594    2.7323805087
 H    0.5699983052   -2.4718793856    1.7545865380
 H    1.5923485838   -0.9936789879    3.5356195831
 H    0.0565346320   -1.0930541036    4.5101597709