22

 C   -0.3897212950    1.7517680827    0.1710355984
 C   -0.2266402832    0.2282465548    0.1405275511
 C   -1.5491851589   -0.5559412605    0.0323251049
 C   -2.2701842340   -0.2879196296   -1.2968807215
 C   -1.3267013819   -2.0719032793    0.1992782811
 C   -0.9491227014   -2.4979918927    1.6306049011
 O   -1.9116744862   -2.1205380606    2.5993535889
 C   -0.6972555875   -3.9544654023    1.6789098183
 N   -0.5347440995   -5.0983744186    1.7053662784
 H    0.5772147467    2.2423445425    0.3187718267
 H   -0.8132456326    2.1391701335   -0.7601494000
 H   -1.0471454741    2.0611371286    0.9911442813
 H    0.4244623700   -0.0567268011   -0.6978302717
 H    0.3036464823   -0.0748427887    1.0514454071
 H   -2.2039267458   -0.2301611025    0.8511636779
 H   -2.5014348531    0.7727490873   -1.4244241800
 H   -1.6539139959   -0.6000335161   -2.1487182418
 H   -3.2148258221   -0.8390067893   -1.3514014697
 H   -2.2403955716   -2.6137927220   -0.0784383245
 H   -0.5447121778   -2.4197765932   -0.4876011640
 H   -0.0261377647   -1.9972398505    1.9398728825
 H   -2.7380104739   -2.5741225220    2.3949883955