17

 C    0.0413455096    1.5461233134   -0.2286704203
 C   -0.0053617333    0.0763462735    0.2050046741
 C   -1.3955867828   -0.5190099201    0.1030406161
 O   -2.3568071643    0.0622357580    0.9412154072
 C   -1.8887435880   -1.1013300285   -1.1914187102
 C   -1.5894712092   -2.0203220119   -0.0040888547
 C   -0.4658860679   -2.9108072365   -0.0480455575
 N    0.4452810752   -3.6232914292   -0.0858899359
 H    1.0575488136    1.9411645295   -0.1487035393
 H   -0.2845549748    1.6676190889   -1.2674563683
 H   -0.5982919915    2.1701898464    0.4051308821
 H    0.6852647849   -0.5154720947   -0.4039066654
 H    0.3310303307   -0.0165024380    1.2440311928
 H   -2.5618974291    0.9381266529    0.5959402041
 H   -2.9367517736   -0.9781421540   -1.4378907455
 H   -1.2101090217   -1.1463514988   -2.0355181522
 H   -2.4521025680   -2.4007965211    0.5312075128