17

 C    0.2230333504    0.9292524878    0.4508352029
 O   -0.4448856178    0.0079062132   -0.3982645526
 C    0.3839782508   -0.5592291727   -1.3451445659
 C    1.3918968650   -1.6118075202   -1.0101746498
 O    0.9378115203   -2.3602984349    0.1451108432
 C   -0.1798037746   -2.7887486350   -0.5605713353
 O   -0.9935466392   -3.5792009439   -0.2166183954
 C    0.1445529591   -1.9878276259   -1.8084284931
 C   -0.1299757128   -2.4185213585   -3.2189015704
 H    1.0168050043    0.4339875396    1.0243110514
 H    0.6595633881    1.7607407831   -0.1213948396
 H   -0.5275736384    1.3246094795    1.1374545845
 H    0.6870091379    0.1092056232   -2.1573303271
 H    2.4464557407   -1.6549840138   -1.2461110129
 H   -1.2052722513   -2.3923581181   -3.4223532648
 H    0.3635865490   -1.7556552703   -3.9353209947
 H    0.2215139085   -3.4389621830   -3.3984311203