15

 C   -0.0823043226    1.4439091081    0.1188243967
 C    1.2975422587    0.8446651355    0.0460370907
 C    2.0534824311    0.5065266559    1.3365760456
 C    1.2102821033   -0.5405843007    2.0529537413
 O   -0.1030148079   -0.1017709849    2.4293284619
 C    0.0381744811   -0.8704636136    1.2239108260
 C    0.0701820012   -0.0501695097   -0.0458847463
 H   -0.4475717286    1.7996349665    1.0740867225
 H   -0.4203048940    2.0053629487   -0.7455986645
 H    1.8888082066    1.0566826000   -0.8379925451
 H    3.0293084718    0.0693463273    1.0947614334
 H    2.2368703580    1.3810618215    1.9705265204
 H    1.6761509666   -1.2364528827    2.7477814678
 H   -0.4493447748   -1.8412998670    1.2349073093
 H   -0.2289294706   -0.5298597849   -0.9699781896