16

 C    0.1965486345    1.5833943148    0.2565499654
 C   -0.0266810429    0.0838317988    0.0047736640
 C    0.5453353722   -0.7719110248    1.1460325857
 O   -1.4046028406   -0.1987332818   -0.2030295987
 C    0.7102220760   -0.2975249219   -1.2936988335
 O    1.9109091304   -0.1546450728   -1.3883858057
 C   -0.0737716934   -0.8290168485   -2.3902253125
 C   -0.6656008890   -1.2758463205   -3.3384318902
 H    1.2642997800    1.8101569661    0.2938726672
 H   -0.2649562101    2.1743642830   -0.5393624940
 H   -0.2563700526    1.8742318174    1.2111252537
 H    0.0914642145   -0.4768427343    2.0988522191
 H    0.3282512649   -1.8294942499    0.9725309743
 H    1.6269113147   -0.6385636470    1.2189933103
 H   -1.8779547738    0.0352866237    0.6020310608
 H   -1.1973237149   -1.6697222925   -4.1702722459