15

 O    0.0188986308    0.0336294841   -0.1620705892
 C   -0.0224985610    1.2144124406    0.0058847326
 C   -1.1189010909    2.2218558281    0.4258438153
 C   -0.0134440282    3.3107753376    0.5946577464
 C    1.0042597293    2.3459584901   -0.0378379714
 O    2.3797121867    2.2591235239    0.2365321588
 C    2.0066966799    2.6105059637   -1.1048201672
 C    2.2876692146    1.6696515427   -2.1508735760
 C    2.5287753293    0.9119564590   -3.0515236394
 H   -1.8326329996    2.4192838121   -0.3788768383
 H   -1.6722515316    1.9407877300    1.3244355243
 H   -0.1736261400    4.2502196482    0.0638734712
 H    0.2222407000    3.5237561524    1.6397598515
 H    2.1828211230    3.6579882322   -1.3495731659
 H    2.7351604678    0.2264052354   -3.8363812526