19

 C    0.0650259155    1.5080394046   -0.1022201198
 C    0.0722223860   -0.0082421730   -0.1077783569
 C    1.4123011983   -0.7253551954   -0.2640253693
 C    0.7353349977   -0.7344738892    1.0622661460
 C   -1.0870809705   -0.7490111960   -0.7061113915
 O   -1.1273448031   -1.9635066336   -0.7275186684
 C   -2.2310423262    0.0689351604   -1.3025701165
 C   -3.3338985307   -0.8042712197   -1.8710643495
 O   -3.8181485819   -0.6378490821   -2.9598839253
 H    0.9781752546    1.8871492717    0.3652834050
 H    0.0221910707    1.9233076783   -1.1147798655
 H   -0.7806078385    1.9140454624    0.4637451367
 H    1.3978283046   -1.6440217460   -0.8382832629
 H    2.2829014350   -0.0944630783   -0.4054424381
 H    1.1277269074   -0.1097089559    1.8570449727
 H    0.2664759722   -1.6593100061    1.3763275845
 H   -2.6603133135    0.7033628424   -0.5126684151
 H   -1.8669624518    0.7473149793   -2.0808876433
 H   -3.6821157160   -1.6105288638   -1.1948900627