15

 N   -0.0269338713    1.0851900919    0.5116816741
 C   -0.0045046773   -0.0799773483    0.0355537521
 N    0.9502116504   -0.9475164662   -0.5140112329
 C    0.0438194877   -2.0864972295   -0.6455686101
 C   -0.2266869049   -2.8917932314    0.6363667283
 O   -1.2116293511   -1.9374209048    1.0925966224
 C   -1.1054007519   -1.1482601553   -0.1240777158
 C   -2.3502283971   -0.8472370020   -0.7690113642
 C   -3.3856818509   -0.5924558186   -1.3227243909
 H    0.9037545216    1.5050000606    0.5484626377
 H    1.9255135847   -0.9966308929   -0.2501402957
 H    0.0544334476   -2.5923828249   -1.6096368374
 H   -0.6828667868   -3.8732873364    0.4595305071
 H    0.6144842957   -2.9948135069    1.3311142539
 H   -4.3034367165   -0.3578531553   -1.8035096587