18

 C    0.1108545542   -1.2048321098   -0.1293206681
 C    0.0107829711   -0.0069390169   -0.0418396173
 C   -0.0449269208    1.4115386481    0.0472136592
 C   -1.2039600978    2.0917411593    0.0543555602
 C   -1.2752909355    3.5934095337    0.1406811997
 C   -0.0860690981    4.2073899873    0.9052848479
 C    1.2438287098    3.5751456419    0.5105389229
 N    1.7635822777    2.5414550085    1.4306847571
 C    1.2559040376    2.1505845711    0.0966569040
 H    0.1822061247   -2.2618407764   -0.1972277202
 H   -2.1382655591    1.5425279016   -0.0155363688
 H   -1.3226399461    4.0062489848   -0.8787809785
 H   -2.2155091501    3.8901633994    0.6181968779
 H   -0.0566520453    5.2890291693    0.7389360676
 H   -0.2304303670    4.0471886491    1.9779202476
 H    1.9710599455    4.2306779199    0.0380614984
 H    2.7812047681    2.5402427626    1.4158681141
 H    1.9893234210    1.8291588965   -0.6390576735