18

 C    0.1032649998    1.5347175299    0.0537485042
 C    0.0974856056    0.0020968114    0.0675091858
 C    0.6637612778   -0.5748766817    1.3274760897
 C    0.2994981328   -0.2983391820    2.8160159604
 C    1.6092782588   -1.1226355632    2.7551767367
 C    0.9721663720   -2.0534957270    1.6930643031
 O    2.0904778207   -0.2463816991    1.6717345902
 C    2.5117757584   -1.4619210821    3.8291081984
 N    3.2075498109   -1.7544977004    4.7040961406
 H    1.1166876884    1.9175593945    0.2002642650
 H   -0.2731065475    1.9136686548   -0.9001573278
 H   -0.5288262823    1.9416528784    0.8493940179
 H   -0.9233758149   -0.3819545634   -0.0520775876
 H    0.6802660518   -0.3881076317   -0.7755044183
 H    0.4295911100    0.7308205451    3.1493343008
 H   -0.5876615995   -0.7822994228    3.2300794803
 H    0.1447942381   -2.6932918279    2.0071918050
 H    1.6884998393   -2.5546721127    1.0420031657