21

 C    0.1033025988    1.5199526038    0.1375414459
 O    0.2005788216    0.1295565215   -0.0593777574
 C    0.6604868249   -0.6000642509    1.0810564708
 C   -0.4795484023   -0.8153464809    2.1158422031
 C   -1.1900968549   -2.1452140216    1.8609701741
 C   -1.2819552055   -2.4875016436    0.3584066459
 C    0.1365283951   -3.0343165833    0.6273399055
 C    1.2072162316   -1.9463675425    0.5492521469
 O   -0.2052323126   -3.2053084265    2.0352675242
 H    1.0700949598    1.9525700426    0.4400238274
 H   -0.1970925611    1.9604444458   -0.8165505902
 H   -0.6448193678    1.7944524913    0.8963427110
 H    1.4762268817   -0.0264831254    1.5450517195
 H   -0.0687842841   -0.8424814238    3.1311048199
 H   -1.1812293657    0.0244881773    2.0701223454
 H   -2.0675123343   -2.2902355495    2.4974597586
 H   -1.9960445412   -3.2907231947    0.1709236982
 H   -1.3997922520   -1.6745523309   -0.3566121536
 H    0.4449260629   -3.9739872313    0.1610884086
 H    1.5542639015   -1.7892839627   -0.4766653616
 H    2.0613071436   -2.2724104547    1.1515958777