17

 O   -0.0549621872    1.3474499671   -0.3030370511
 C    0.0184608928   -0.0193681685    0.1100463062
 C   -1.4011220947   -0.5334486713    0.0573602460
 O   -2.2775324760    0.2264979705    0.8273640237
 C   -1.9313143786   -1.1719022253   -1.2085855382
 C   -1.6525626233   -2.0177518882    0.0388441878
 O   -0.4857531255   -2.8030355543    0.0427466722
 C   -2.7627271695   -2.5708916884    0.7687372587
 C   -3.6707146899   -3.0965679109    1.3558558347
 H    0.7394119077    1.7972761870   -0.0028635526
 H    0.6742227181   -0.6067851947   -0.5410032572
 H    0.3897771826   -0.0972160977    1.1411051506
 H   -2.0834261577    1.1440280552    0.5929215831
 H   -2.9694609303   -0.9866167523   -1.4562635768
 H   -1.2508389077   -1.3124144534   -2.0413647748
 H   -0.7019268903   -3.6432516138   -0.3776418380
 H   -4.4732753407   -3.5395307209    1.8916428857