17

 O   -0.8342409362    1.3668555413    0.5641447732
 C    0.2170357232    0.9676078063    0.1385961235
 C    1.4714492092    1.8317315702   -0.0019892757
 C    1.4113411800    3.0037452639    0.9948043658
 C    2.3744583427    4.0579210543    0.6951725281
 N    3.1379845293    4.8875707747    0.4411249036
 N    2.6348961896    0.9907502402    0.2314679337
 C    3.1244449958    0.2167662174   -0.9133071666
 C    3.8868586633    1.3905869702   -0.4152888497
 H    0.3504599528   -0.0810066760   -0.2021097614
 H    1.4477395373    2.2403458045   -1.0327103381
 H    0.3982157972    3.4166013989    0.9851515588
 H    1.5977646880    2.6191105665    2.0027077882
 H    3.4512141165   -0.7932299534   -0.6873186289
 H    2.6075412281    0.3268432627   -1.8652505367
 H    3.8805161987    2.2924938903   -1.0219365335
 H    4.7806849146    1.2521793580    0.1841538255