21

 C    0.2481784660    1.2643367386    0.1794440246
 O   -0.1365700994   -0.0458860545   -0.1926004521
 C    0.5596056631   -0.5489588538   -1.2863844689
 C    0.2926378497    0.0327539697   -2.6787677531
 C    0.5063094049   -1.1799249208   -3.6251912555
 C    1.3067918889   -2.1785549173   -2.7739803509
 C    2.6508252704   -1.5464445863   -2.2723924918
 C    1.9332686201   -1.1465080534   -0.9848305654
 C    0.7405950394   -2.0332994791   -1.3343452913
 H    1.3196533367    1.3210443813    0.4182207032
 H    0.0297533872    1.9959285266   -0.6113672012
 H   -0.3306035699    1.5256720524    1.0684867558
 H   -0.7309584851    0.4167407810   -2.7258092822
 H    0.9649334745    0.8626527656   -2.9210178556
 H   -0.4588991160   -1.6183038218   -3.9018174040
 H    1.0246455733   -0.9109341716   -4.5512404586
 H    1.3828664857   -3.1787576358   -3.2001458919
 H    3.4092044253   -2.3113395543   -2.0843436789
 H    3.0931548856   -0.7565933583   -2.8918450566
 H    2.3822835602   -0.9902334631   -0.0103957525
 H    0.1892626994   -2.7435298547   -0.7332563432