14

 O    0.0743605208    0.0343670653   -0.1815163311
 C    0.0209959913    1.2232327320   -0.0177300914
 C   -1.2174981239    2.1060463522    0.1076640870
 O   -0.7504846822    3.3578783485    0.5885144324
 C    0.5829685576    3.5619961717    0.1181894073
 C    1.1970882584    2.1756452109    0.0951832384
 C    2.4576665455    1.7528662559    0.7260312090
 O    2.3505910564    1.8992673715   -0.6871461770
 H   -1.6982467616    2.1948571802   -0.8814977475
 H   -1.9483165171    1.6984936529    0.8106721174
 H    0.5910109831    3.9896541649   -0.8969276711
 H    1.0729148503    4.2616945799    0.7983236543
 H    3.0647663968    2.4999954430    1.2353008583
 H    2.5502144347    0.7272747912    1.0785935042