19

 C   -0.0061054884    1.4810798656    0.0228183439
 C    0.0445025204   -0.0192885690    0.0010100818
 N   -0.8550599330   -0.8530821759    0.8355549325
 C    0.6150873787   -0.9020286441    1.0419331344
 C    1.3412965801   -1.9381606100    0.1630746526
 N    0.3138743149   -2.2042078270   -0.9044876195
 C    0.5609813656   -0.7611198995   -1.2595635800
 C    2.0543956883   -0.9906649227   -0.8753199631
 O    2.8077481120    0.1278595180   -0.4785522906
 H    0.9232085791    1.9012231534   -0.3726231259
 H   -0.8397634831    1.8611698696   -0.5796850803
 H   -0.1359268848    1.8531366731    1.0451123261
 H   -1.2369120090   -0.2413543069    1.5576328164
 H    1.0630112674   -0.5376952021    1.9581663472
 H    1.8240296243   -2.7956281543    0.6327556709
 H    0.7688040290   -2.7704267983   -1.6221953149
 H    0.2451000391   -0.4099774245   -2.2422067357
 H    2.5753267687   -1.5751972199   -1.6466385999
 H    3.7200493007   -0.1456968955   -0.3430410858