18

 O    0.1997791909    1.3783240986    0.2655838174
 C    0.0911066090   -0.0173027427    0.0411121915
 C   -1.3636208624   -0.4981049943    0.0697414742
 C   -1.5000459467   -2.0010453735   -0.1019916012
 C   -2.9443188851   -2.5419723963   -0.0458505469
 N   -2.8538574077   -3.6088022558   -1.0231006686
 C   -1.8300657354   -3.3787585151   -1.9199046055
 O   -1.6262364618   -3.9240477495   -2.9673713011
 O   -1.0297296976   -2.3933666357   -1.4076090010
 H   -0.1319227180    1.8305867387   -0.5163649225
 H    0.5637554016   -0.3172874843   -0.9039469193
 H    0.6539604719   -0.4945390836    0.8514630821
 H   -1.8148665461   -0.2066781159    1.0261309460
 H   -1.9354144615   -0.0007471796   -0.7246564816
 H   -0.8807412833   -2.5264984438    0.6377657328
 H   -3.2022175581   -2.9108777595    0.9506252631
 H   -3.6719215406   -1.7677083781   -0.3304604809
 H   -3.6685850390   -4.0849979196   -1.3745344885