17

 C   -0.1091542837    1.5061412038   -0.0506229451
 C   -0.0103837010   -0.0064815018   -0.0136415988
 O   -1.3483565324   -0.5270163874    0.0300684857
 C   -1.4307445279   -1.8636373826    0.0665158971
 N   -0.4705254468   -2.7391223197    0.0674880470
 C   -1.1122184550   -3.9815525078    0.1142148003
 C   -2.4612137240   -3.8012219723    0.1399853841
 O   -3.5502777117   -4.6086735052    0.1855825321
 N   -2.6746215166   -2.4358851308    0.1094688937
 H    0.8935913458    1.9421126768   -0.0845701069
 H   -0.6606594257    1.8398870333   -0.9342537902
 H   -0.6206248910    1.8858435598    0.8385178114
 H    0.4989734218   -0.4062492231   -0.8974752921
 H    0.5387966740   -0.3605390988    0.8658275136
 H   -0.5553448974   -4.9049816007    0.1254777167
 H   -3.2475292018   -5.5217187114    0.2028559064
 H   -3.5634175166   -1.9656117621    0.1171367151