21

 C   -0.1758506074    1.5022191142   -0.0032807591
 C    0.0251728473   -0.0100708215    0.0304765881
 C    1.1405085791   -0.5243532135   -0.9296471668
 C    2.1275904237   -0.5645731826    0.2687991373
 C    0.9007044803   -0.5340274978    1.2180176949
 N    0.9695457512    0.2201345353    2.4429798170
 C    0.8005310579   -0.3719053555    3.6756556582
 N    1.0486945840    0.4849202958    4.7462082667
 O    0.4924701135   -1.5387097125    3.8318873659
 H    0.7770863826    2.0439492502    0.0418065976
 H   -0.6750411349    1.8045264099   -0.9297172744
 H   -0.7916618941    1.8390083597    0.8371045158
 H   -0.9451913181   -0.5064134247   -0.0661603439
 H    0.9245094657   -1.5225695208   -1.3186047446
 H    1.4019640919    0.1261374420   -1.7680112520
 H    2.8082326168   -1.4146744768    0.3541240516
 H    2.7170522730    0.3556807649    0.3399288275
 H    0.5993412882   -1.5423713349    1.5038905580
 H    1.4266220458    1.1174389893    2.4122494725
 H    0.8272694452    1.4617668109    4.6200641541
 H    0.7096586883    0.1050568484    5.6173957056