19

 C   -0.1348704380    1.5796234213    0.0027138466
 C   -0.0507674958    0.0568418600   -0.0043252666
 C   -1.3903466137   -0.5914613621   -0.3443055172
 C    1.1997728275   -0.5747032184   -0.6553370031
 C    2.1515786461   -0.2270213275    0.5301499705
 C    2.5641543550   -1.6905048044    0.6046615340
 N    1.0929711661   -1.8416155151    0.2414383183
 C    0.7625966433   -0.6071042190    1.1288676324
 H    0.8222783421    2.0499518534    0.2458801452
 H   -0.4527795315    1.9539014833   -0.9770153297
 H   -0.8728464887    1.9227821720    0.7366434553
 H   -1.7374772398   -0.2676617236   -1.3323862290
 H   -1.3102320391   -1.6802099717   -0.3446156363
 H   -2.1574078745   -0.2990704457    0.3821775385
 H    1.4633239994   -0.6743024566   -1.7119236205
 H    2.7379555433    0.6831983797    0.6903587988
 H    3.2438447478   -2.0777919326   -0.1620739038
 H    2.8157839872   -2.1095269054    1.5849445817
 H    0.5088121133   -0.7450435978    2.1835335049