17

 O   -0.1318632345    1.4033511829   -0.8882927527
 C   -0.0280115260    0.1666483411   -0.1987680414
 C   -1.3762615980   -0.4939413948    0.0233570752
 C   -1.9854396180   -1.3273507318   -1.0720565474
 C   -1.4356661035   -1.9924710446    0.1662500617
 N   -2.2976723758    0.2916869991    0.8083980546
 C   -2.1935580015    0.4492647061    2.1587025668
 O   -1.3308346339   -0.0405307979    2.8537544711
 H   -0.5333387958    2.0333808441   -0.2816920925
 H    0.5939594183   -0.4824184861   -0.8231881138
 H    0.4741815228    0.2865828172    0.7705151740
 H   -3.0634028521   -1.2992150831   -1.1916883399
 H   -1.4331778862   -1.4084495016   -2.0014812339
 H   -0.5031528402   -2.5410090267    0.0924372299
 H   -2.1382866558   -2.3940795424    0.8856413452
 H   -3.0418094591    0.7766965851    0.3312054131
 H   -3.0056160108    1.0909769935    2.5588013700