19

 O    0.4849917186    0.5190186757   -1.1328022943
 C   -0.0136601690   -0.3702174222   -0.1694697113
 C    0.3119321511   -0.1534236261    1.3407955688
 C   -1.1732773747   -0.4568865834    1.6914348258
 C   -2.0231653508    0.8254751490    1.9442373145
 C   -2.2142137725    0.9600162385    0.3930682078
 C   -1.5282901197   -0.4123444482    0.1599981364
 C   -3.3150361512    0.5363011691    2.6576072101
 O   -3.6983793045    1.0957624395    3.6528449322
 H    0.2793664396    1.4178114799   -0.8552576675
 H    0.3175496433   -1.3611936075   -0.4937535458
 H    1.0557463701   -0.8318311884    1.7634750637
 H    0.6142285090    0.8718277237    1.5798117119
 H   -1.3554117231   -1.3232477767    2.3278540242
 H   -1.5134382493    1.6439538967    2.4582594052
 H   -3.2588021431    1.0003473883    0.0741161703
 H   -1.7090944112    1.8240900732   -0.0487404518
 H   -2.1316948938   -1.1634678658   -0.3507928217
 H   -3.9246958788   -0.2724128153    2.1856964312