20

 C    0.0379465326    1.3905454192   -0.3169094239
 O   -0.0595567881   -0.0367310076   -0.2333231086
 C   -1.2923929780   -0.5157523661    0.0306333878
 O   -2.2657442521    0.1780752628    0.1736777532
 C   -1.2504609147   -2.0284548437    0.1592965041
 N   -2.5626841416   -2.6132830072    0.1037423771
 C   -3.5122793657   -2.3971372934    1.2178399703
 C   -3.9963392338   -3.8559474971    1.0366451767
 C   -2.6765212004   -4.0766502987    0.2588465130
 H    1.0866114375    1.6052211582   -0.5227770936
 H   -0.5958946712    1.7737541798   -1.1205393875
 H   -0.2706070433    1.8546655190    0.6234015611
 H   -0.6306951638   -2.4294878337   -0.6501433122
 H   -0.7080093273   -2.2532095703    1.1030672891
 H   -3.0066042031   -2.2493142591    2.1872061569
 H   -4.2186824778   -1.5801537749    1.0621304262
 H   -4.1481082401   -4.4495993732    1.9382367395
 H   -4.8777048346   -3.9307409181    0.3973570225
 H   -2.7078671833   -4.6390722783   -0.6806026235
 H   -1.8890711411   -4.5067314476    0.9015946018