21

 C   -0.0881046201    1.5810121008   -0.1240449915
 C    0.0310920800    0.0541126851   -0.0301254388
 C    0.7374928335   -0.5130075427   -1.2628823898
 O   -0.0333781542   -0.1905844827   -2.4114191835
 C    0.7579786561   -0.4121456195    1.2410786080
 C   -0.0081242265   -0.1072839847    2.5450986197
 O   -1.3289286316   -0.6446752770    2.5310078236
 C    0.7478221967   -0.5706240474    3.7130583032
 C    1.3653597028   -0.9985539326    4.6518289048
 H    0.8984491273    2.0566907307   -0.0544038294
 H   -0.5318445473    1.8624347757   -1.0812537590
 H   -0.7166603515    1.9910106991    0.6716690202
 H   -0.9787635212   -0.3725074946   -0.0145709804
 H    1.7535723526   -0.0888678489   -1.3351300609
 H    0.8452955185   -1.6046761129   -1.1560257629
 H    0.4514467245   -0.4768168821   -3.1904852723
 H    0.9285966590   -1.4964738282    1.1994771730
 H    1.7493087964    0.0543842017    1.3091283586
 H   -0.1546561471    0.9753482498    2.6297320214
 H   -1.2535532091   -1.5998134226    2.6366574639
 H    1.9054558411   -1.3569340170    5.4932159721