18

 C   -0.1485326517    1.5024704077    0.0926692403
 C    0.0070672356   -0.0057915372   -0.0637052693
 O   -1.1922187081   -0.6167757229   -0.4639165505
 C    1.1979997453   -0.4372621830   -0.9530454496
 C    2.0629047963   -0.6470665758    0.3166057620
 C    0.7567215352   -0.6563496531    1.1740027841
 O    0.7085841451    0.1305082930    2.3417210817
 C    0.2866139784   -2.0193876201    1.4541422084
 N   -0.0507167614   -3.0898212378    1.7311271011
 H    0.7951681667    1.9885473660    0.3509139869
 H   -0.5141742240    1.9173064766   -0.8511694708
 H   -0.8629321101    1.7389181158    0.8877400043
 H   -1.9061360418   -0.3049079399    0.1041048764
 H    0.9680888474   -1.3772057252   -1.4583699708
 H    1.5489816405    0.2910501350   -1.6857959723
 H    2.6916964366   -1.5365377726    0.3623465306
 H    2.6537891499    0.2333680025    0.5781783422
 H    1.1718557300   -0.3315502891    3.0495960154