22

 N   -0.0751047132    1.3586710767    0.1860770902
 C    0.0626769927    0.0297251843   -0.1072823505
 O    1.1413088083   -0.4648618870   -0.3710386328
 C   -1.2394208380   -0.7694439025   -0.0820843683
 C   -1.0097091281   -2.2608074540    0.1779428050
 C   -2.2764671346   -3.0923164045    0.0374022290
 C   -2.9197514466   -3.2697427090   -1.3712117516
 C   -3.2225743375   -4.7475884817   -1.0048094644
 C   -2.1683395966   -4.6413202288    0.1292983217
 H    0.7292216341    1.9533222228    0.0693121002
 H   -0.9761840846    1.7878897725    0.3019214487
 H   -1.9288323571   -0.3431127271    0.6574210541
 H   -1.7202890832   -0.6339316961   -1.0611448193
 H   -0.2439893159   -2.6177766369   -0.5190730341
 H   -0.5882600691   -2.3928293353    1.1827553852
 H   -3.0387245928   -2.7366566579    0.7428560334
 H   -3.7621463754   -2.6267870361   -1.6395822993
 H   -2.1632858028   -3.1982378171   -2.1606261248
 H   -4.2347674243   -4.8659473383   -0.6070585775
 H   -3.0650043151   -5.5043550515   -1.7768017939
 H   -1.1832268031   -4.9858686435   -0.2024158984
 H   -2.3951980471   -5.1134894088    1.0885855572