19

 O   -0.0972297871    1.4399671611    0.0223934473
 C   -0.0113950820    0.0222619435   -0.0063820998
 C    0.6981457158   -0.5881615312    1.2284857106
 C    0.0371050265   -1.9666647875    1.4353965658
 O   -0.0151920271   -2.4126767646    2.7860246114
 C   -1.3720490539   -1.7993330110    0.9011399947
 O   -2.0565759961   -2.9575292141    0.5389227311
 C   -2.1371593493   -0.5767926097    1.3367410847
 C   -1.3997840389   -0.5897012891    0.0106195126
 H    0.7941040598    1.7938555949   -0.0601275650
 H    0.5001792707   -0.3024011869   -0.9263130040
 H    1.7838242192   -0.6508065413    1.1042512023
 H    0.4977444540    0.0398238653    2.1018793543
 H    0.5292912370   -2.7262393896    0.8087744748
 H    0.8707248983   -2.6780453830    3.0510805733
 H   -2.2605157144   -3.4284727781    1.3551581397
 H   -3.2153903694   -0.6645272913    1.2679327868
 H   -1.7805727036    0.0420103005    2.1518025935
 H   -1.9859554995   -0.5876497479   -0.9003942541