20

 C    0.0909650418    1.5564477205   -0.0192393787
 C   -0.0130512947    0.0655265944   -0.0190505549
 C    0.7165792964   -1.0237102053   -0.7937031246
 C    0.7092455373   -1.0046412988    0.7433104128
 N   -0.5034031397   -1.7971116675    1.1035088146
 C   -0.5015772742   -2.9422044542    0.1176161054
 C   -0.5422832758   -1.8923177741   -1.0069509678
 C   -1.2159793448   -0.9237257892    0.0351551383
 C   -2.6715892481   -0.6170429610    0.1894192475
 H    1.1409756789    1.8689644001   -0.0283394450
 H   -0.3902699039    1.9960245369   -0.9005700211
 H   -0.3757761438    1.9924698710    0.8714026590
 H    1.6171347334   -0.9536138267   -1.3894210303
 H    1.5951283307   -0.9591409283    1.3646067638
 H    0.3584738708   -3.6150804905    0.1873987671
 H   -1.4301437929   -3.5117629283    0.2188688380
 H   -0.9059683256   -2.0745237554   -2.0185725243
 H   -3.2616550294   -1.5382858658    0.2439710562
 H   -2.8515388323   -0.0480401252    1.1076351606
 H   -3.0391078739   -0.0284774327   -0.6585267867