17

 C   -0.0244358032    1.4966825336    0.0894398288
 C    1.3817466700    2.1313548690   -0.0439681084
 C    2.1635389055    1.3697083263   -1.0652422830
 C    1.9641106133    0.0251423227   -1.3359483461
 C    2.9692399391   -0.2975616130   -2.2771466791
 N    3.7302031327    0.7539559572   -2.5704890931
 N    3.2210671715    1.7547787765   -1.8110760348
 C    0.8993200380   -0.6998240929   -0.6617275616
 C   -0.0179629849   -0.0189974403    0.0400465101
 H   -0.4935739714    1.8485511823    1.0135318280
 H   -0.6596720671    1.8662601244   -0.7308388199
 H    1.2945040776    3.1941188885   -0.2935685732
 H    1.9041944010    2.0778804218    0.9228709082
 H    3.1639972989   -1.2452528616   -2.7585996883
 H    3.6448540036    2.6658064232   -1.8665386317
 H    0.8616316817   -1.7824261348   -0.7324434958
 H   -0.8282064964   -0.5395177729    0.5406636099