17

 N    0.0680898061    1.3856292720    0.2189269358
 C    0.0007978325   -0.0108740840    0.0732466934
 C   -1.0459861983   -0.8493882576   -0.2623066367
 C   -0.5409612489   -2.1797829084   -0.1777065346
 O   -1.2128990125   -3.3427865252   -0.4338389285
 C    0.7827238113   -2.1339271070    0.1980147315
 C    1.7858493426   -3.2079488127    0.4020729174
 O    2.8983086075   -3.1337295732   -0.5004643384
 N    1.0881268184   -0.7809638408    0.3516671262
 H    0.7168592486    1.8154665974   -0.4336342700
 H   -0.8418994227    1.8055933562    0.0787040614
 H   -2.0392058608   -0.5438212308   -0.5566070823
 H   -2.1287753940   -3.1274059244   -0.6287767391
 H    2.2452745468   -3.1552989326    1.3975072493
 H    1.2700732561   -4.1752265057    0.3324538892
 H    2.5264232152   -3.1016767603   -1.3887103569
 H    1.9751393220   -0.4295353728    0.6680467923