23

 C    0.1327498373    1.5557910191   -0.0292744192
 C    0.1393508599    0.0295116170   -0.0262336280
 C    1.0851626862   -0.6113612511   -1.0465160133
 O    1.2521855350   -1.9515515763   -0.6090266536
 C    1.2205685948   -1.9855448632    0.8435304462
 C    0.3585131006   -3.1799798559    1.2441009737
 C    2.6777411905   -2.1660804145    1.3012890187
 O    3.2715108838   -3.2983439600    0.7028223034
 C    0.6370389849   -0.6195141457    1.2822108153
 H    1.1335591455    1.9533808520    0.1751003761
 H   -0.1937988112    1.9513841971   -0.9970402145
 H   -0.5445720877    1.9512725266    0.7341944849
 H   -0.8733358112   -0.3365272304   -0.2357318989
 H    0.6877029166   -0.6366429988   -2.0657689091
 H    2.0481015412   -0.0726937980   -1.0691525751
 H    0.7919007532   -4.1034046586    0.8538925105
 H    0.3022291682   -3.2625133660    2.3343538877
 H   -0.6550374774   -3.0700090146    0.8485306531
 H    3.2407814775   -1.2478450453    1.0629386593
 H    2.7241324764   -2.3081509705    2.3870642084
 H    3.0628202944   -3.2213967999   -0.2375141672
 H    1.4180091087    0.0047868030    1.7341146520
 H   -0.1584856673   -0.7328366759    2.0225720095