15

 O    0.0592559848    0.0194045514   -0.4446279105
 C    0.0306495587    1.1917951978   -0.1381825388
 N    1.0535040239    1.8703134998    0.4666365187
 C    2.5064823551    1.6471093154    0.2423639187
 C    2.6054099863    2.7186358432   -0.9059751710
 C    3.7682549145    3.4501865715   -0.2067305942
 C    2.8747884317    2.9869801439    0.9623890223
 C    1.5619977898    3.2343551857    0.1492566314
 H   -0.8755794378    1.8250379764   -0.2418134933
 H    2.9798752620    0.6711605465    0.3139036355
 H    2.4205524021    2.5443966395   -1.9662954811
 H    4.7541222306    2.9840978846   -0.2815401976
 H    3.8402829629    4.5286785357   -0.3707629070
 H    2.9939160445    3.1221927255    2.0369128680
 H    0.9307705809    4.1218269331    0.1201613190