17

 N   -0.2441575679    1.4108725748   -0.0551021496
 C   -0.0548030179    0.1765590325    0.1195278682
 C   -1.1079226293   -0.8591914420   -0.1555359795
 C   -1.7701050756   -1.3182526135    1.1675299206
 N   -0.8400606479   -1.4993598419    2.2765158158
 C    0.3696963395   -2.2151050595    1.9490013783
 C    1.4361162409   -1.5448878257    1.0633127455
 O    2.5184589516   -2.0227064850    0.8968126643
 O    1.1829691421   -0.2889015434    0.5458784049
 H    0.5889469019    1.9448566331    0.2003549130
 H   -1.8541827309   -0.4235233608   -0.8216314089
 H   -0.6522443643   -1.7103794541   -0.6740333892
 H   -2.5115968317   -0.5767778267    1.4760628482
 H   -2.3057873121   -2.2588917756    0.9899095257
 H   -0.6288306861   -0.6130104883    2.7189834967
 H    0.9073550448   -2.4804593447    2.8655915550
 H    0.1146824930   -3.1682375994    1.4702584411