15

 O    0.0488104105    1.4029566122   -0.1484736188
 C    0.0435473768   -0.0115331254   -0.0679418512
 C    0.7253321801   -0.5341694620    1.1877105213
 C   -0.0923790125   -1.2805219369    1.9504539265
 C    0.1921382044   -1.9009643425    3.1877628572
 C    0.3947006704   -2.4589867006    4.2363464315
 C   -1.4552408343   -1.3434846983    1.3019645938
 O   -2.0695259213   -0.0399132349    1.1755142552
 C   -1.3704388871   -0.5928545189    0.0495293743
 H   -0.5255624893    1.7060455083    0.5675387772
 H    0.5438110184   -0.3653367091   -0.9767269879
 H    1.7383916887   -0.2507664813    1.4452686155
 H    0.5852649768   -2.9379566659    5.1648154363
 H   -2.1362804623   -2.1672670430    1.4861692456
 H   -1.9739329992   -0.7965432817   -0.8294373066