15

 O   -0.1268020221    0.0129075953   -0.0092553202
 C    0.0586093733    1.1805961336    0.2156888951
 C    1.3772746141    1.8663727856   -0.0088016782
 O    1.5233552557    3.0502001903    0.8964941923
 C    1.9399981641    3.8184183326   -0.2050783307
 C    3.0284101202    3.0712199915   -1.0701639922
 C    3.6297899387    1.8638066949   -0.4562677503
 C    2.6707329036    1.1077222476    0.0976022123
 C    1.5449147342    2.8314688763   -1.2390122851
 H   -0.7399683207    1.8517086069    0.5971090123
 H    1.8913745144    4.8970550533   -0.1218191110
 H    3.5513911272    3.6796255197   -1.7983179973
 H    4.6965149160    1.6867464574   -0.3990612697
 H    2.7880619361    0.2117019449    0.6902310839
 H    0.9694002353    2.8747568000   -2.1545926912