20

 C    0.0809701314    1.4351272452   -0.4867880540
 C    1.4008661025    1.6570415218    0.3025535205
 C    1.3141684731    0.1874051368    0.7871439252
 C   -0.1594383144    0.1236510644    0.3111251268
 C    2.3713101552   -0.8904749785    0.3965223855
 C    3.2850581407   -0.2818417263    1.4998245049
 C    1.8641313497   -0.3646985998    2.1309884592
 C    1.7530617182   -1.7874124777    1.5082405932
 H   -0.6820995606    2.2120573999   -0.4032239346
 H    0.2626181261    1.2443599689   -1.5477977383
 H    2.2820999282    1.9478393374   -0.2756205564
 H    1.2791436070    2.3717138084    1.1233528272
 H   -0.8672881638    0.2623062093    1.1351443535
 H   -0.4687369634   -0.7555478909   -0.2605087000
 H    2.6626865336   -1.1926018533   -0.6117625878
 H    4.0428967485   -0.9472771748    1.9228237163
 H    3.6907641514    0.7156207701    1.3166181290
 H    1.5674400757   -0.0571808278    3.1361812614
 H    0.7476894537   -2.1766883225    1.3327860353
 H    2.4075774149   -2.5543886025    1.9318074131