15

 C   -0.1579574738    1.3877661020   -0.7617525942
 N    0.2096421705    0.0332131054   -1.1253224782
 C    0.9230987283   -0.7622015882   -0.2980100196
 O    1.3331856569   -0.4684514021    0.8066806748
 C    1.2255378674   -2.1819498372   -0.8543621448
 O    1.8564071480   -2.9597171302   -0.1849097862
 C    0.7368013630   -2.6412534332   -2.2625604519
 N    1.1156043348   -3.9035223958   -2.5236940651
 O    0.0912680120   -1.9345920745   -3.0246719280
 H    0.2369103608    1.5893947997    0.2342857798
 H    0.2624142685    2.1103385579   -1.4696993125
 H   -1.2467813076    1.5074132385   -0.7493369306
 H   -0.0605746010   -0.3601980486   -2.0223331087
 H    1.6478883541   -4.4048426507   -1.8300876472
 H    0.8681216680   -4.3296152032   -3.4009761676