19

 O   -0.1170578658    1.2866268492   -0.5903315058
 C    0.0237038503    0.0408106071    0.0878228588
 C   -1.3233455683   -0.6386997373    0.0713465279
 C   -1.9452655494   -1.3298534283   -1.1218184771
 C   -0.8888695839   -2.0931792538   -1.9245362606
 C   -0.6039837656   -2.9645875644   -0.6488759314
 O    0.7009606259   -3.0334093539   -0.1061233290
 C   -1.5903217287   -2.1187648986    0.1438272464
 O   -2.4570590635   -2.6645275225    1.0767111224
 H    0.7268676692    1.7455800690   -0.5415422782
 H    0.7871939521   -0.5912956354   -0.3787123349
 H    0.3328863965    0.1946792443    1.1345787586
 H   -2.0787912736   -0.0944924080    0.6356536811
 H   -2.9265142882   -1.0490448396   -1.4815954283
 H   -1.2971019381   -2.6767801771   -2.7525959584
 H   -0.0462956715   -1.4996458474   -2.2888974717
 H   -1.0271658342   -3.9693512020   -0.7773643380
 H    1.2178436507   -3.6481642905   -0.6365641783
 H   -2.0705957339   -2.5489250708    1.9514264466