19

 O    0.3883369593    1.0915943772   -0.6726397213
 C    0.0449264249   -0.2540087308   -0.3771133298
 C   -1.3260868212   -0.3751604295    0.2798623924
 C   -2.5310245864   -0.2218654965   -0.7107586950
 C   -2.6691641713   -1.7425032802   -0.6990212612
 C   -3.5872542602   -2.6975139721   -1.3094802712
 O   -2.2553959342   -2.5122366116   -1.8321041255
 C   -1.7807909567   -1.8582706962    0.5454664666
 O   -0.8421195923   -2.8956939125    0.5347043331
 H   -0.2383367258    1.4202941033   -1.3249698259
 H    0.0939818643   -0.8838630990   -1.2791109682
 H    0.8126930885   -0.6184648975    0.3109808121
 H   -1.3597014437    0.2798963586    1.1536662177
 H   -3.3929652584    0.2908867157   -0.2763040936
 H   -2.3193048488    0.2115270365   -1.6930118548
 H   -3.7646674525   -3.6581991097   -0.8284600117
 H   -4.3850423722   -2.3469011999   -1.9621475881
 H   -2.3620487747   -1.9278032342    1.4717106305
 H   -0.7754618586   -3.1849189717   -0.3865759060