20

 C   -0.1059058740    1.5072360649    0.0054350292
 C    0.0612130771   -0.0183760838   -0.0138924902
 C    0.6949810459   -0.4914302426   -1.2907192965
 C   -0.0709253561   -0.9404611226   -2.4925630050
 O   -0.0513437253   -0.3452479315   -3.7632206511
 C    0.9250276776   -1.8981110148   -1.8952888583
 C    2.3932751937   -1.4800793658   -2.0483931615
 C    2.6509085835   -0.2449913871   -2.8210648030
 N    2.1675512830   -0.1357452328   -1.4217370876
 H    0.8614877712    1.9957344415   -0.1425546125
 H   -0.7786756677    1.8405799406   -0.7913835514
 H   -0.5164309489    1.8449961831    0.9617397755
 H    0.6920431863   -0.3292723622    0.8274458936
 H   -0.9096982964   -0.5116682281    0.1131986644
 H   -1.0813986811   -1.2234551341   -2.1837880991
 H   -0.1570222909   -1.0478206424   -4.4146850334
 H    0.6330907702   -2.8689434127   -1.5124964395
 H    3.1934496665   -2.1176538723   -1.6852931572
 H    3.6921170417    0.0612363846   -2.8899379394
 H    2.0146353535    0.0545813282   -3.6393812668