19

 C    0.0391030837    1.3989985692    0.0173845781
 N    0.0465353996   -0.0513036220   -0.0054991643
 C   -1.0853147984   -0.6463497900    0.0607946354
 N   -2.3324805631   -0.0972551619    0.1799730894
 C   -1.1048088675   -2.1553455887    0.0165953208
 O   -2.1678222215   -2.7447972260   -0.0584365679
 C    0.2012350973   -2.9364935704    0.0625542396
 C    0.8169087786   -2.8680558379    1.4732035819
 O   -0.0395850951   -4.2700513172   -0.3199042266
 H    1.0648694960    1.7723973588   -0.0117648060
 H   -0.4938376891    1.8235306702   -0.8493339502
 H   -0.4452096076    1.7947827072    0.9237498085
 H   -2.4765228159    0.8682594192   -0.0602412710
 H   -3.1022945446   -0.7331295944    0.0334803638
 H    0.8996235272   -2.4748500705   -0.6446131250
 H    0.1106558418   -3.2475858261    2.2187653148
 H    1.7053476311   -3.5039738470    1.4915932050
 H    1.0990441367   -1.8441777831    1.7248293576
 H   -0.9990250091   -4.3925714695   -0.2669749537