19

 O   -0.0929319408    1.2090371073    0.7040778576
 C    0.0320056310   -0.0115698795   -0.0092146231
 C   -1.3072395553   -0.6059803665   -0.3144341342
 C   -2.3714003578   -0.1502109120   -1.3254796409
 C   -2.9201823772   -1.6197349283   -1.3420539341
 C   -1.8252367597   -1.9930933708   -0.3300713602
 C   -1.2055441560   -3.3257699944   -0.0473357366
 O   -2.1062811785   -4.1813348450    0.6389753678
 O   -2.0352554853   -1.1372907748    0.8157651738
 H   -0.5983180144    1.0141031732    1.5014295046
 H    0.5569598870    0.2309630483   -0.9390075902
 H    0.6403522788   -0.7434864912    0.5426779795
 H   -3.0464665153    0.6268765103   -0.9623342653
 H   -1.9478931351    0.1536363639   -2.2857462319
 H   -3.9419874530   -1.7711859050   -0.9893221203
 H   -2.7924321102   -2.1077175086   -2.3112492354
 H   -0.9586554254   -3.8328317278   -0.9858723759
 H   -0.2719122048   -3.1831310798    0.5168745241
 H   -2.3669207880   -3.7211827593    1.4448884307