20

 C   -0.4605954213    1.4298006382   -0.1301010009
 C    0.5570239783    0.3257136018    0.1414111023
 N    1.1426139303   -0.1488821775   -1.1076369768
 C    2.0083141277   -1.0678422054   -1.0571549073
 O    2.4524222036   -1.6687188500    0.0988794956
 C    3.4285342964   -2.6604422439   -0.2328018108
 C    3.5391156322   -2.6059116084   -1.7275930476
 C    2.7081565534   -1.6746747298   -2.2044643664
 C    2.4442272756   -1.2358495129   -3.6049679488
 H    0.0142140877    2.2753739091   -0.6370295354
 H   -1.2642677330    1.0629431339   -0.7758102066
 H   -0.9041210180    1.7906084123    0.8036296849
 H    1.3449997798    0.6953835036    0.8141676476
 H    0.0771613853   -0.5070097760    0.6766302329
 H    4.3706972295   -2.4202332252    0.2788041578
 H    3.0878348470   -3.6363474137    0.1395490905
 H    4.2047865516   -3.2431767392   -2.2949240158
 H    3.0505758355   -1.7932523033   -4.3226797746
 H    1.3860873806   -1.3679178338   -3.8531732839
 H    2.6530782680   -0.1668080698   -3.7155958168