17

 C   -0.0195028181    1.5256195817    0.1051079966
 C    0.0394498833    0.0414756532   -0.0039135100
 C    0.0808124532   -0.7766356175   -1.1045096923
 O    0.0760817388   -0.3754568714   -2.4117896958
 C    0.1086193642   -2.1327312189   -0.6587044206
 O    0.0602895125   -3.2442212996   -1.4823230555
 C    0.0782835109   -2.1195832391    0.7164924618
 N    0.1417055081   -3.1598281521    1.6622805302
 N    0.0300190534   -0.8052640641    1.1051320945
 H    0.8626644122    1.9538653880    0.6008493125
 H   -0.0719157932    1.9550767686   -0.8982099412
 H   -0.9027388087    1.8680878120    0.6603206148
 H   -0.1697269051   -1.1467262609   -2.9358665911
 H    0.9511478894   -3.4295733175   -1.8006285292
 H    0.3277616447   -4.0332423960    1.1815039792
 H   -0.7389948700   -3.2755332125    2.1580677588
 H    0.1930933345   -0.5074004638    2.0511326673