13

 O    0.0149167254    1.4363753130   -0.1036875255
 C    0.0179409118    0.0442585247   -0.0083406997
 C    0.9725515032   -0.5703278754   -0.9362859212
 N    1.7774332867   -0.9516172075   -1.6726554434
 C   -0.1101052279   -0.6740633897    1.3872964249
 C   -1.5292625136   -0.0802324747    1.5351821104
 C   -1.3732115888   -0.6423029354    0.1019028404
 O   -0.6840669925   -1.8225375505    0.6620671572
 H    0.9248266000    1.7527507382   -0.1336490599
 H    0.6617743863   -0.8745837958    2.1294117104
 H   -2.1931205426   -0.6626613340    2.1731179295
 H   -1.6293122374    0.9974882192    1.6578228623
 H   -2.1085364707   -0.8034958620   -0.6848324456