23

 C    0.0023940793    1.4016634266   -0.0124921083
 O    0.0149015831   -0.0044715967   -0.0115547172
 C    0.6525140691   -0.5508664903    1.1234093221
 C    0.6529508960   -2.0707768100    1.0086663842
 C    1.4240017847   -2.5620697542   -0.2270347631
 C    1.4785733389   -4.0904935857   -0.2507749106
 O    2.0432980400   -4.6189844316    0.9388199804
 C    1.3015553392   -4.2522833796    2.0880188541
 C    1.2343148045   -2.7332179027    2.2676262636
 H    1.0215801717    1.8204906158   -0.0123279550
 H   -0.5116236234    1.7255686163   -0.9209275566
 H   -0.5322733894    1.8073524759    0.8614909705
 H    1.6892850597   -0.1757617572    1.1984314105
 H    0.1290968022   -0.2375455125    2.0441128427
 H   -0.3953467549   -2.3875517533    0.9052226726
 H    0.9577321183   -2.1833226661   -1.1412679382
 H    2.4500315209   -2.1716261905   -0.1950546089
 H    0.4625411070   -4.4986469181   -0.3971399297
 H    2.1049136999   -4.4527157918   -1.0712977564
 H    0.2777986432   -4.6625557930    2.0237500762
 H    1.7991735179   -4.7283167346    2.9382067256
 H    2.2481331912   -2.3540571996    2.4517894208
 H    0.6307252711   -2.4937540168    3.1517968809