13

 C   -0.3230822808    1.5375145075    0.0194762369
 C    0.1184721413    0.0890017219   -0.0052314017
 C    0.8748928442   -0.4376330311   -1.2472173751
 C    1.9784104752   -0.8065748268   -0.2374035623
 O    1.2734492559   -0.1541910836    0.8379403993
 H    0.4921198486    2.1965879470   -0.2952766446
 H   -1.1761583512    1.6892349026   -0.6513480789
 H   -0.6277696303    1.8274791176    1.0301320522
 H   -0.7141020036   -0.5638918720    0.2959730535
 H    0.4103331433   -1.2626970606   -1.7891003126
 H    1.1556081097    0.3459626897   -1.9545951896
 H    2.0950101245   -1.8834976393   -0.0560608301
 H    2.9697034432   -0.3692414729   -0.4040800871