15

 C    0.0733224670    1.5003515471   -0.0189533940
 N    0.0567269489    0.0531046636   -0.0847724317
 C   -1.0189152892   -0.5989842735    0.0058213922
 O   -1.0817083402   -1.9429612176   -0.0497853660
 C    0.1608013829   -2.6254855066   -0.2215611909
 C   -0.1452259983   -4.1120946632   -0.2565271241
 O    0.7103078241   -4.9437283201   -0.3917758385
 C   -2.3477776856   -0.0355900234    0.1818943448
 N   -3.3764811958    0.4721607687    0.3215290557
 H    0.7214365052    1.8067289303    0.8087433950
 H    0.5246485673    1.8884152918   -0.9380362353
 H   -0.9138367953    1.9603074779    0.1137638434
 H    0.6511943326   -2.3144602167   -1.1509752691
 H    0.8483872927   -2.3962633799    0.6004613255
 H   -1.2217328561   -4.3650054686   -0.1469710368