20

 C   -0.1620192585    1.5620618418   -0.0475044275
 C   -0.0006456092    0.0493003443    0.0058255175
 C    1.1525396267   -0.5897707615   -0.8496920280
 C    2.1171588810   -0.2347923841    0.3372954373
 C    0.8406149519   -0.5824417872    1.1695018360
 C    0.6542562636   -0.2467430605    2.6256579149
 N    0.6307161644   -2.0164174628    0.8305582331
 C    0.9527296886   -2.0778182822   -0.5288832062
 O    1.0779200080   -3.0565348506   -1.2202789913
 H    0.7805212988    2.1067298696    0.0524981523
 H   -0.6124323775    1.8573449550   -1.0008830689
 H   -0.8311604140    1.9052453731    0.7492049869
 H   -0.9764354138   -0.4304879101   -0.1186350270
 H    1.3503228677   -0.3344812996   -1.8881089507
 H    2.9947637986   -0.8701496311    0.4853305064
 H    2.4073077954    0.8160388041    0.3671418663
 H    0.7654104497    0.8289074890    2.7896294225
 H   -0.3403898196   -0.5471348343    2.9709875962
 H    1.3986533133   -0.7565233874    3.2481896636
 H    0.9681393950   -2.7463938457    1.4433101167