21

 C    0.1425465403    1.5289600880   -0.2002631469
 C    0.0310430980    0.0007392725   -0.2315474076
 C   -1.3766298443   -0.5256520034    0.0396619230
 C   -1.5788456808   -2.0476285954    0.0000481419
 O   -0.8704424878   -2.6184011251    1.1095151632
 C   -2.1770151328   -2.0681068723    1.3404369652
 C   -2.0037952599   -0.5471918836    1.5054599042
 C   -1.1882700337   -0.1052431305    2.7146930911
 O   -1.8728040013   -0.3820024387    3.9318061517
 H    1.1616780978    1.8530656385   -0.4325905778
 H   -0.5280736309    1.9885197401   -0.9351416914
 H   -0.1171380921    1.9372136476    0.7815109570
 H    0.3372559924   -0.3576901947   -1.2238893369
 H    0.7329355707   -0.4478146032    0.4786277384
 H   -2.0891422418   -0.0406035219   -0.6375934856
 H   -1.7441285016   -2.6915183485   -0.8568401962
 H   -2.9246479876   -2.7295588483    1.7634258978
 H   -2.9722137011   -0.0387562688    1.5191984451
 H   -0.2005982558   -0.5833709444    2.6989793453
 H   -1.0362375875    0.9784477666    2.7000930580
 H   -1.8497966005   -1.3345338345    4.0665203508