17

 N    0.0478114440    1.3427426236    0.0125047825
 C   -0.0417733667   -0.0372675583    0.0110612926
 N   -1.1789738397   -0.6157851967    0.0043888206
 C   -1.2003161825   -2.0692984600    0.0938286608
 C   -0.0970667880   -2.6941653621    0.9686797860
 O   -0.0484062963   -4.1073172274    0.8353190290
 C    1.2495245299   -2.1421545165    0.5775260854
 O    1.4523902283   -1.8495855029   -0.8047558987
 C    1.2774003691   -0.7517598527    0.1016349638
 H    0.8509097809    1.7452740144   -0.4465015109
 H   -0.8247352741    1.8040051510   -0.2051142263
 H   -2.1786705560   -2.3727335324    0.4868346717
 H   -1.1074897554   -2.5089610869   -0.9069628625
 H   -0.2619202187   -2.4096624917    2.0226607202
 H   -0.9071292730   -4.4592337067    1.0913194389
 H    2.1171066367   -2.5516282493    1.0921859362
 H    2.1663131714   -0.1423024353    0.2595993805