21

 C   -0.3340418807    1.4255117739   -0.0684260152
 C    0.2082425330    0.0115281544   -0.1378104456
 O    1.5082014642   -0.0446161802   -0.7766013928
 C    2.0901833552   -0.7124099060    0.3579817879
 C    0.7742846380   -0.6486114728    1.1451580234
 C    0.6720705683   -0.0168734266    2.5428536208
 O    0.0236236977   -1.1846004411    3.0802866672
 C    0.1460178912   -1.8907604685    1.8215137508
 C   -1.1858561469   -2.4207996580    1.3297401602
 H    0.3489113980    2.0865066012    0.4737800025
 H   -0.4582241614    1.8221780458   -1.0807565172
 H   -1.3107042577    1.4457786540    0.4275150745
 H   -0.5035188360   -0.6362288073   -0.6687413509
 H    2.4330604576   -1.7272740178    0.1120458964
 H    2.9314676537   -0.1491523626    0.7833855763
 H    1.6390086745    0.1802721982    3.0263221014
 H    0.0447859663    0.8784351457    2.6313061520
 H    0.8669641384   -2.7175301043    1.9158005773
 H   -1.9107453150   -1.6114825323    1.1997589043
 H   -1.0702002264   -2.9468203174    0.3759476141
 H   -1.5924506319   -3.1271876683    2.0600788328