17

 O    0.0102552860    1.4288493626    0.1679999993
 C   -0.0865053474    0.0395430708    0.0800422109
 C   -0.4355623872   -0.8127781686    1.2596353027
 C   -1.4576177927   -0.0661539000    2.1251657304
 C   -2.4278124856   -0.0584044866    0.9077907358
 O   -2.8619231905    1.2322287154    0.4397042532
 C   -4.1735221236    1.5384222881    0.4842108977
 O   -4.6043057960    2.5925748349    0.1283756947
 C   -1.3823929945   -0.7157821839    0.0264018901
 H   -0.8328553397    1.8136015101   -0.0959231765
 H    0.6803450077   -0.3895047765   -0.5626307183
 H    0.1636022428   -1.6552090858    1.5797735248
 H   -1.8484165323   -0.6382568331    2.9678317271
 H   -1.1340561350    0.9207444752    2.4619595903
 H   -3.3046013447   -0.6919012682    1.0724167345
 H   -4.7903300148    0.7073234706    0.8784007149
 H   -1.6012414125   -1.4350634552   -0.7538688715