15

 C    0.2016156837    1.4715460001    0.1873008891
 N    0.2677419655    0.0265875010    0.0940083911
 C    0.4454180408   -0.5518191626   -1.0069877705
 N    0.5095267068   -1.9324385917   -1.1022485568
 C    0.7000242140   -2.7028994062   -2.2476669197
 O    0.7367908753   -3.9135098777   -2.1959748249
 C    0.8419715636   -1.8890784092   -3.4574338060
 C    0.7804080015   -0.5585795106   -3.3648185912
 O    0.5916030224    0.1228373524   -2.2088397752
 H    0.9805694195    1.8229514535    0.8734640360
 H    0.3176085927    1.9953768651   -0.7677114423
 H   -0.7601074601    1.7591469677    0.6270652639
 H    0.4035175093   -2.4292155907   -0.2286412162
 H    0.9943745796   -2.3860496919   -4.4040204998
 H    0.8741354954    0.1247021108   -4.2005391672