18

 C    0.0524719707    1.5593601334    0.1185116338
 C    0.0574069978    0.0375855040   -0.0452987992
 C    0.6835203010   -0.4582161410   -1.3684632483
 C   -0.0254049250    0.0794232638   -2.6200709770
 O    2.0535683730    0.0052927909   -1.3415418167
 C    2.9646312692   -0.5298716270   -2.1909718736
 O    4.0721776289   -0.0962696460   -2.2729052226
 C    0.6387479790   -1.9376988538   -1.3678387481
 N    0.5706330568   -3.0912148523   -1.3597311901
 H    1.0602483846    1.9680039237    0.0159160910
 H   -0.5965406318    2.0508091271   -0.6117695711
 H   -0.3201556787    1.8180157977    1.1133526234
 H    0.6223172327   -0.4232127339    0.7707623054
 H   -0.9611782507   -0.3611409645    0.0082480566
 H    0.0769186087    1.1653274481   -2.6578385247
 H    0.4107489089   -0.3436381128   -3.5282393789
 H   -1.0866944281   -0.1812747973   -2.5970407149
 H    2.5836841931   -1.3940684500   -2.7619036650