21

 C    0.0426571970    1.5849153217    0.1300126002
 C   -0.0235762629    0.0627311278   -0.0250513728
 C   -1.4626794378   -0.4558437358   -0.0234702778
 O   -2.0180688890   -0.1955091654    1.2585381947
 C    0.7014499943   -0.4281601600   -1.2742535904
 O    0.1247508523    0.1178830938   -2.4402184778
 C    1.1529108091    0.0789728693   -3.4155199930
 C    2.4192568511    0.3687619832   -2.5914318386
 O    2.0640157373   -0.0235115004   -1.2688506744
 H    1.0794397538    1.9189070609    0.2124490530
 H   -0.4089005033    2.0793902977   -0.7353054194
 H   -0.5007945221    1.8889730504    1.0267494357
 H    0.4869795760   -0.4078239135    0.8250179079
 H   -2.0339560138    0.0455376805   -0.8186577947
 H   -1.4708904223   -1.5366175245   -0.2422499842
 H   -2.9540165513   -0.4124653317    1.2288378361
 H    0.6650010586   -1.5335093840   -1.3314214170
 H    1.2048348926   -0.9131906345   -3.8892314328
 H    0.9390009097    0.8282332448   -4.1805026570
 H    3.2860976709   -0.2055158230   -2.9373059635
 H    2.6769849797    1.4348390927   -2.5968982041