20

 C   -0.0014577400    1.5043245086   -0.1196625025
 C    0.0716636865    0.0074611786    0.0581812188
 N    1.3953724621   -0.6229242243    0.0281597954
 C    0.6022514989   -0.6802814605    1.2881904093
 C    1.1873837228    0.0806193098    2.4670351374
 C    2.3592412921   -0.6548211660    3.1091313504
 O    2.8305013185    0.1539322048    4.1779434821
 C   -0.0141145839   -1.9443902957    1.6164620830
 C   -0.5147153458   -3.0035092415    1.8932346343
 H    0.8537032854    2.0081309939    0.3337853775
 H   -0.0031074547    1.7507962954   -1.1869534804
 H   -0.9210454224    1.9050443688    0.3194748530
 H   -0.7344772109   -0.5365178922   -0.4317310892
 H    1.3542402363   -1.5222085689   -0.4444811710
 H    1.5398582992    1.0598672625    2.1366923996
 H    0.4101513478    0.2451988027    3.2213548170
 H    2.0301563726   -1.6416085150    3.4682073329
 H    3.1396838576   -0.8173592866    2.3505691238
 H    3.5803453676   -0.2921239150    4.5816683505
 H   -0.9616407098   -3.9352558693    2.1377189681