16

 C   -0.0569276172    1.5592833301    0.0077835582
 C   -0.0207603380    0.0614816461    0.0284615861
 C    0.0122730892   -0.7811520170   -1.0674518584
 N   -0.0282482945   -0.5263745775   -2.4144938363
 O    0.0271698467   -2.0711690503   -0.7082962237
 C    0.0009184804   -2.1053575621    0.6752910662
 C    0.0163127424   -3.3728770915    1.3539946828
 O    0.0511866676   -4.4704872587    0.8326275899
 C   -0.0289121122   -0.8143108136    1.1428535150
 H    0.7002076392    1.9798915519   -0.6661505722
 H   -1.0300839499    1.9484006204   -0.3160220640
 H    0.1415436961    1.9639521485    1.0035213433
 H    0.3134621694    0.3827607613   -2.6878848330
 H    0.3227458028   -1.2755885908   -2.9943119285
 H   -0.0069533948   -3.2494150767    2.4607073536
 H   -0.0500341271   -0.5277728602    2.1845982112