20

 C    0.0664142628    1.5468360409   -0.0126578858
 C   -0.0253345412    0.0247805186    0.0709137599
 O    0.6828021949   -0.4333787986    1.2402821733
 C   -1.4700293009   -0.5254053380    0.0227756236
 C   -2.2127672380   -0.0322265929   -1.2284733542
 C   -1.4568197349   -2.0823612454    0.0807043384
 O   -0.9044721168   -2.6089845787    1.2640877178
 C   -2.8273700873   -2.6189106259   -0.0280910906
 N   -3.9045429844   -3.0220860490   -0.1341081372
 H    1.1038212907    1.8539862588    0.1439716332
 H   -0.2583015081    1.9236553225   -0.9847051043
 H   -0.5550094531    2.0209989723    0.7574454110
 H    0.5375544383   -0.4145348867   -0.7627499934
 H    0.3437415550    0.0538548742    2.0010463763
 H   -2.0004810466   -0.1778411414    0.9202384775
 H   -2.3381616772    1.0522262931   -1.2135109109
 H   -1.6662219167   -0.2956123159   -2.1418183264
 H   -3.2071027476   -0.4793043056   -1.2936204811
 H   -0.9090465029   -2.4417950049   -0.8101541275
 H   -0.1112813860   -2.0758713274    1.4411462505