16

 C   -0.1179869111    1.5204802956   -0.0799929518
 C    1.4490519236    1.6763061614    0.0417715917
 N    2.0281659218    2.1781598074    1.3008693836
 C    2.5052202315    1.0170623711    2.1404598237
 C    1.6558411611   -0.1156194227    1.5937472011
 C    1.3447470615    0.2184037631    0.3174128772
 N    0.0113446017   -0.0294436003    0.0306075943
 N   -0.5270648438   -0.7047348581    1.1367062548
 C    0.4540796492   -0.7897806991    2.0199556350
 H   -0.6432459998    1.9040226756    0.7928573895
 H   -0.5876013735    1.8111781538   -1.0193493190
 H    1.9367752651    2.0649468917   -0.8551596488
 H    2.7503516115    2.8713715197    1.1493504730
 H    3.5862071666    0.8437461195    2.0370232244
 H    2.3019993971    1.2128075699    3.1982683034
 H    0.2760812575   -1.3199191388    2.9482749479