16

 O    0.0768199639    0.1412999030   -0.5247870889
 C    0.1120857151    1.3197905372   -0.2492980629
 N    1.2189687292    1.9698352580    0.2086061393
 C    2.6300726065    1.5562113793    0.0729078395
 C    3.0118965007    3.0452380481    0.0377558651
 C    2.2786173534    3.7698090347   -1.0850304264
 C    1.9925824807    3.1726495991   -2.3557440592
 C    1.7434886844    2.6548417584   -3.4123673008
 C    1.5414554074    3.3833255627    0.1919299559
 H   -0.7701505976    1.9911255098   -0.2905708359
 H    2.9942597235    1.0317795282    0.9601370718
 H    2.8355690749    0.9674761271   -0.8247749431
 H    3.8666357313    3.4861196010    0.5305942917
 H    2.5214457740    4.8297982705   -1.1134276133
 H    1.5191484379    2.1980012851   -4.3445250633
 H    1.0310045848    4.1005293578    0.8233147307