19

 C   -0.1249327037    1.4137999059    0.8038677461
 O   -0.1384743728    0.0222385001    1.0092680255
 C    0.8236813785   -0.6591034690    0.2306050065
 C    0.7130743804   -2.1147934515    0.5331146923
 C    1.4928843898   -3.3573920340   -0.0024174651
 C    0.2559918320   -4.2198791666    0.2076369701
 C    1.2731553005   -4.0643673691    1.3279265508
 C    0.4987712852   -2.8220131030    1.8624159897
 C   -0.5221788066   -2.9781055376    0.7379625281
 H   -0.3443509023    1.6751708204   -0.2436953060
 H   -0.8970755334    1.8467123169    1.4445800141
 H    0.8478253467    1.8574576443    1.0698699889
 H    0.6527755240   -0.4702975391   -0.8452318389
 H    1.8393255180   -0.2887624933    0.4621089293
 H    2.2974554636   -3.4616723847   -0.7184524710
 H   -0.0563612085   -5.1107810645   -0.3206129476
 H    1.8822439618   -4.8143928714    1.8145386567
 H    0.3729112786   -2.3962849070    2.8482626466
 H   -1.5647009718   -2.6925172870    0.7142060438