20

 C   -0.0691369856    1.5236144188   -0.0700956430
 C    1.4831104454    1.4988370215   -0.0522145908
 C    1.4129672350    0.0787081993    0.5741556895
 C   -0.0610762523   -0.0219648909    0.0832154775
 C    2.4334794966   -0.9685490206    0.1357500327
 C    2.1781415664   -2.3857435697    0.7222324650
 O    2.1600183272   -3.2564294995   -0.4364278760
 C    2.2830917573   -2.4295979501   -1.5008121413
 N    2.4312067032   -1.1842393629   -1.3280243928
 H   -0.4794261782    2.0176214247    0.8155865400
 H   -0.5571666377    1.9378221142   -0.9551393436
 H    1.8982155668    1.4528497558   -1.0618281924
 H    2.0020946496    2.2770075579    0.5131777658
 H    1.4420835801    0.1474401252    1.6686221458
 H   -0.7962926948   -0.4730999827    0.7544369779
 H   -0.1144971119   -0.5189083061   -0.8890652643
 H    3.4316159011   -0.6069540717    0.4168805761
 H    2.9626848660   -2.7346483566    1.3973458108
 H    1.2088594881   -2.4703269145    1.2247128886
 H    2.2472087375   -2.9329335322   -2.4611135958