25

 C   -0.4017955249    1.4469775893   -0.0277730128
 C   -0.2672899974   -0.0725223223   -0.2125210870
 C    0.7025623711   -0.5196199237   -1.3222192712
 C    2.0860359505    0.1053349244   -1.1564291669
 C    0.6971428482   -2.0820153682   -1.5415507237
 C    0.3730609804   -3.0389532724   -0.4022781049
 C   -0.3340534776   -1.9000350235   -2.6863457835
 C    0.0797394483   -0.4145716344   -2.7639563323
 O   -0.8868229728    0.5619327315   -3.0786211609
 H    0.5276278883    1.8909880100    0.3401411235
 H   -0.6572989353    1.9395759792   -0.9692305100
 H   -1.1828066222    1.6753795197    0.7048137275
 H    0.0590958281   -0.5182442440    0.7356765797
 H   -1.2630755181   -0.4975685678   -0.4002957465
 H    2.5127245209   -0.1178411644   -0.1706190055
 H    2.7785314966   -0.2818079072   -1.9116912679
 H    2.0562223990    1.1939827365   -1.2663856618
 H    1.6642347803   -2.3659045876   -1.9729279880
 H   -0.6041531743   -2.8305185316    0.0443949418
 H    0.3537340106   -4.0727912812   -0.7650134258
 H    1.1232108162   -2.9857421891    0.3949689387
 H   -0.2305435879   -2.5104918579   -3.5866690751
 H   -1.3618003560   -2.0045162251   -2.3169037708
 H    0.8801264263   -0.2690020081   -3.4966115299
 H   -1.6748105983    0.3801352378   -2.5565703065