20

 C    0.9486046870   -1.0361492153   -1.0356363869
 C    0.1103935283   -0.4680949587    0.1092698936
 O    0.2607979414    0.9622140972    0.1916895988
 C   -1.3334032066   -0.8632765309    0.0258811209
 C   -2.0479753513   -1.4910681288   -0.9772755130
 C   -3.3967290695   -1.5982585285   -0.5500324744
 C   -3.4670102118   -1.0304278213    0.7010032435
 N   -2.2190546523   -0.5829875184    1.0492960511
 C   -1.8795357863    0.0382683149    2.3164561145
 H    1.9794436065   -0.6879875185   -0.9369016920
 H    0.9408602608   -2.1299115810   -1.0273876790
 H    0.5651869934   -0.6992117138   -2.0047526782
 H    0.5379783379   -0.8200298804    1.0573798956
 H   -0.2397683772    1.3343745941   -0.5438370969
 H   -1.6412133346   -1.8391678259   -1.9142402658
 H   -4.2196346395   -2.0326355101   -1.0963352194
 H   -4.2997694947   -0.9002389508    1.3747541507
 H   -1.3914184966   -0.6718843209    2.9948219041
 H   -1.2080311661    0.8810456920    2.1440279647
 H   -2.7941411488    0.3960434652    2.7931715782