21

 C   -0.0530042636    1.3963842756   -0.0782772187
 O   -0.1028796704   -0.0105081044   -0.1141902001
 C    0.7079649702   -0.5597366722   -1.1218303984
 C    0.6311513702   -2.1019601338   -1.0423651642
 C    1.1810176976   -2.6015400938    0.3010529519
 O   -0.7081808686   -2.5833632676   -1.0850986602
 C   -1.4921800754   -2.1874037131   -2.1923525682
 C    1.4237968416   -2.6458474836   -2.1617329808
 C    2.0671842988   -3.0798876120   -3.0800568245
 H    0.9638220448    1.7642235109    0.1314792784
 H   -0.3881650634    1.8413638473   -1.0284868769
 H   -0.7207611848    1.7258748606    0.7211434278
 H    0.3875984158   -0.2126668759   -2.1164777187
 H    1.7611278493   -0.2589077034   -0.9994051742
 H    0.6164077574   -2.1344404049    1.1095589303
 H    1.0685534831   -3.6857122362    0.3594559354
 H    2.2391672678   -2.3479808490    0.4015616581
 H   -2.4099023721   -2.7785558843   -2.1444717885
 H   -1.7602820232   -1.1236585407   -2.1460177279
 H   -0.9885788842   -2.3935335577   -3.1465696833
 H    2.6363764191   -3.4749828016   -3.8852765573