12

 O    0.0667279610    0.0337128950   -0.0079802181
 C   -0.0096133643    1.2163197410    0.0383056845
 C   -1.1407691096    2.2502446533    0.1602847398
 C   -0.0161363454    3.2917534389    0.0991706813
 C    1.0157589064    3.0246918480    1.1226611998
 N    1.0598753419    2.2054469961   -0.1199853285
 C   -0.0530503391    4.4795468056   -0.6966666721
 N   -0.1174942261    5.4518786792   -1.3190998868
 H   -1.7828987391    2.2445103439   -0.7231634299
 H   -1.7553380721    2.2300533089    1.0625488003
 H    1.8536720500    3.7090621835    1.1942264426
 H    0.7212362265    2.5506261964    2.0557920472