17

 C   -0.1218586907    1.3105411261   -0.1351914072
 C    0.1861232631   -0.1507954506    0.1129132822
 C    1.5014994913   -0.7979995030   -0.0203430011
 C    2.6608258701    0.1112061419    0.4121978045
 C    2.0047897550    0.1852050828    1.8152553069
 O    2.3913446339    0.5872655258    2.8767531292
 C    0.8319360593   -0.6603989560    1.4186010381
 C    0.1725748245   -1.7052780998    2.2224444048
 O   -0.6234355800   -2.5013483683    1.7774570775
 H    0.6952884747    1.9740520386    0.1562042972
 H   -0.3256489363    1.4741389737   -1.1988226621
 H   -1.0111550389    1.6113747771    0.4262729979
 H   -0.6329868120   -0.8241803294   -0.1343068591
 H    1.6250284558   -1.7565832198   -0.5076168246
 H    3.6210296710   -0.4075239991    0.4796863101
 H    2.7997718352    1.0438276058   -0.1398412286
 H    0.4772871739   -1.7228291158    3.2894073742