18

 C   -0.3265626804    1.4440247776   -0.1166562771
 C    0.0038261696   -0.0272151171    0.0651555282
 O    0.2252382522   -0.5035913551    1.1550722602
 C    0.0396598379   -0.8695887061   -1.2036699584
 C    0.2648716610   -2.3604346375   -0.9433978698
 C    0.3152212036   -3.1530061900   -2.2252898794
 C   -0.2843989660   -4.4859261375   -2.3532726526
 O   -0.9309466447   -3.3383989721   -2.9080685332
 H    0.3426807891    1.9053346058   -0.8511046544
 H   -1.3457670363    1.5530847036   -0.5051279993
 H   -0.2448364884    1.9639811477    0.8384807514
 H   -0.8952747059   -0.7158170655   -1.7581900691
 H    0.8275496805   -0.4597547562   -1.8528795719
 H    1.1977819606   -2.5006508747   -0.3862648438
 H   -0.5382291608   -2.7448075652   -0.3071294041
 H    1.1433973616   -2.9098188329   -2.8953118435
 H    0.1133246269   -5.1953361663   -3.0778532149
 H   -0.7823452705   -4.9325124286   -1.4933704881