20

 C   -0.1126113637    1.5376943837   -0.1436520455
 C   -0.0087669741    0.0281807620    0.0230364757
 C   -1.4000671102   -0.5842984003    0.2643297904
 O   -1.4080502003   -0.9776862544    1.6637196770
 C   -0.1328601969   -0.7690443497    2.3151595088
 C    0.7852505221   -0.6899317683    1.1263012085
 C    2.0576908010   -0.1412364785    0.4376268283
 N    1.2018474315   -0.6238542329   -0.7714621054
 C    0.9513244963   -1.8511423819    0.1137724622
 H    0.8456319377    2.0440040486   -0.2605582543
 H   -0.7024332657    1.7540074340   -1.0413960515
 H   -0.6377729241    1.9885648950    0.7058169379
 H   -2.1886780727    0.1606603197    0.1173611468
 H   -1.6464483054   -1.4559518860   -0.3494374580
 H   -0.1449314518    0.1573882843    2.9073830737
 H    0.0356131881   -1.6170532436    2.9854940685
 H    2.2617497864    0.9270193245    0.4641922922
 H    2.9793631033   -0.7171545924    0.5451461796
 H    1.8357747797   -2.4829758493    0.2262729022
 H    0.0899493387   -2.4499916145   -0.1749722869