14

 O   -0.3091000530    0.4818245458   -0.7928697936
 C    0.4728234562   -0.3689601396   -0.0170200867
 C    1.9191497145   -0.1753511855   -0.2589305407
 N    3.0517531213   -0.0178126825   -0.4244941497
 C    0.1928857198   -0.1363639577    1.4917093781
 O   -0.5706690961    0.7430736954    1.7978810980
 C    0.9153101864   -0.9984632903    2.5234367245
 C    1.0363699107   -2.4002965647    2.1488498637
 C    1.1227586975   -3.5551806977    1.8307592939
 H   -0.7050939743    1.1133415739   -0.1684747290
 H    0.2386315794   -1.4192294817   -0.2398779729
 H    1.9151089016   -0.5590288707    2.6527779903
 H    0.3868748101   -0.8755629946    3.4736835879
 H    1.2104841060   -4.5779790500    1.5565735762