17

 N   -0.0813016514    1.4585775934    0.2605829847
 C   -0.0581739364    0.0383960877   -0.0128303300
 C   -1.4554167760   -0.5830851139   -0.1394523593
 C   -1.1690904743   -1.9425991440   -0.7720377991
 N   -0.1273980354   -1.6377525526   -1.7642209443
 C    0.6515782692   -0.4763209790   -1.3323092810
 C    0.6605702161    0.5722458925   -2.3706850965
 N    0.6619541508    1.4195580835   -3.1575359057
 H    0.8564098621    1.8176933765    0.4103091861
 H   -0.4625141061    1.9697393737   -0.5313608157
 H    0.4644170900   -0.4486765716    0.8183814469
 H   -1.9625094491   -0.6503065220    0.8244269874
 H   -2.0715486468    0.0285442165   -0.8088502879
 H   -0.8331636258   -2.6539080562    0.0005240466
 H   -2.0451955096   -2.3781718674   -1.2631165881
 H    0.4458877443   -2.4301350844   -2.0150534180
 H    1.7006185785   -0.7186474428   -1.1164356361