17

 N   -0.0611279428    1.3066338297    0.1994490041
 C   -0.0254641390    0.0480750100    0.1213065035
 O   -1.1701102724   -0.6524179690    0.0006377302
 C   -1.0387551472   -2.0616467491   -0.1782282537
 C   -2.4188375160   -2.6808033498   -0.0124999267
 C   -2.3939215818   -4.2040155837   -0.2131769810
 C   -3.7847470075   -4.7992305212   -0.1645873738
 O   -4.1184104956   -5.7125110060    0.5432642443
 H    0.8819331218    1.6753283025    0.3026088903
 H    0.8746172098   -0.5826908580    0.1490948299
 H   -0.6385833155   -2.2761119614   -1.1795271757
 H   -0.3380333623   -2.4744514191    0.5608412807
 H   -2.7987391241   -2.4356948124    0.9851765171
 H   -3.0997436131   -2.2144435675   -0.7339260070
 H   -1.9778985752   -4.4328858966   -1.2060709882
 H   -1.7753938595   -4.7075662286    0.5356657652
 H   -4.5117119996   -4.3146698797   -0.8584192593