19

 C    0.0555932910    1.6678731889    0.0032840919
 C    0.0026887181    0.1339305662    0.0273619645
 C    0.6907989820   -0.4538840586    1.2575304213
 O   -0.0707241654   -0.0691017878    2.3995149876
 N   -1.3663076236   -0.3614567213   -0.0148158212
 C   -2.0024466183   -0.6691954429   -1.1796048117
 C   -3.4516414855   -1.1097542504   -1.0301143764
 O   -1.4575585565   -0.5962515094   -2.2685462425
 H    1.0930765544    2.0176690023   -0.0260778882
 H   -0.4572419708    2.0429380630   -0.8855473787
 H   -0.4218925089    2.0862632544    0.8934163454
 H    0.4964622349   -0.2536095824   -0.8682665974
 H    0.7321165412   -1.5487725274    1.1651708656
 H    1.7211000767   -0.0735495194    1.3192628888
 H    0.3024667144   -0.4962330597    3.1753311031
 H   -1.8589162867   -0.3900822891    0.8633117708
 H   -3.7556624890   -1.2750362758    0.0068342016
 H   -4.0999206150   -0.3457141522   -1.4694825218
 H   -3.5988128430   -2.0294782285   -1.6008567528