21

 O    0.0275516303    1.4242627395    0.2483321899
 C   -0.0482104013    0.0160054319    0.1602199140
 C   -1.4656184350   -0.5017074943   -0.1409287134
 C   -1.9488051478   -0.0758836249   -1.5367250219
 O   -1.9389086032    1.3436771936   -1.7361186496
 C   -1.5266012575   -2.0140266599   -0.0248869748
 C   -1.7610222159   -2.6740895932    1.3217966785
 C   -2.8284885241   -2.7084592945    0.2576009413
 O   -3.9575866900   -1.8893312824    0.3809074350
 H   -0.4039935790    1.7618041161   -0.5491450638
 H    0.6456321448   -0.3791778635   -0.6047686169
 H    0.2863066685   -0.3793102276    1.1258508800
 H   -2.1482927588   -0.0663342261    0.5991586583
 H   -1.2756814069   -0.4765565863   -2.3038390984
 H   -2.9504816573   -0.4825564676   -1.7224519295
 H   -2.6288391347    1.7181116339   -1.1775576003
 H   -0.8571832659   -2.5417477513   -0.7010657712
 H   -1.2307700006   -3.5885563256    1.5644650380
 H   -1.9357211577   -2.0114301677    2.1636199506
 H   -3.0128525755   -3.6580349097   -0.2444904280
 H   -4.5159578122   -2.2518155204    1.0763665521