19

 C   -0.1575587140    1.5494929026   -0.0769626980
 C    0.0534067141    0.0379970657   -0.0499808698
 C    1.0053478234   -0.5335976658   -1.1227094628
 C    1.2386725494   -1.9617590979   -0.5793050667
 N    1.9878744592   -1.2898893102    0.5612909147
 C    2.3960014237   -0.2719285559   -0.4921221043
 C    0.8416680788   -0.5632251428    1.1974723542
 C    1.3110649898    0.4293847221    2.1618122417
 N    1.6601000055    1.2272966429    2.9215554736
 H    0.7859833824    2.1016278800   -0.0504620946
 H   -0.6929902832    1.8389877946   -0.9868161554
 H   -0.7517072654    1.8810239948    0.7797501429
 H   -0.9231126480   -0.4536284341   -0.1137293829
 H    0.7644517644   -0.3170563534   -2.1648122173
 H    0.3774479492   -2.5663448313   -0.2777325527
 H    1.9358135959   -2.5622036848   -1.1663930051
 H    3.2283755022   -0.6687279361   -1.0757022101
 H    2.6474521032    0.7187392574   -0.1068370170
 H    0.2299975894   -1.2891705376    1.7403370695