13

 O   -0.0784115322    1.3807272835    0.0110086675
 C    0.0309905497    0.0253126930    0.0029072733
 C    1.1659411776   -0.6960465389   -0.0081263176
 O    1.1758502569   -2.0450718550   -0.0155401368
 C   -0.0419455370   -2.7680405972   -0.0118083694
 N   -0.0105627288   -4.0328296230   -0.0193423985
 N   -1.2116401153   -2.0455709030   -0.0007027183
 C   -1.1882461303   -0.7578018637    0.0061808469
 O   -2.3309317739   -0.0714809924    0.0170944991
 H    0.8010118792    1.7751961509    0.0076716976
 H    2.1643727794   -0.2720388117   -0.0120501906
 H    0.9536308841   -4.3613094573   -0.0272577114
 H   -3.0416816093   -0.7318212153    0.0179044383