17

 C   -0.0663028316    1.4546243478    0.0643073669
 N   -0.0100211236    0.0071401959    0.1654192953
 C   -1.0739450017   -0.6678661706    0.0776100443
 O   -2.3418578064   -0.1457069397   -0.1127323244
 C   -3.2850261104   -1.2125449701   -0.1681364517
 C   -2.4812656482   -2.4755434691    0.0133761798
 C   -3.1097803076   -3.8277060285    0.0165965061
 C   -1.1996679418   -2.1248661852    0.1544938952
 H    0.6666992757    1.7890826830   -0.6789104064
 H   -1.0501287560    1.8545971238   -0.2056543074
 H    0.2366121614    1.8959496170    1.0221711497
 H   -4.0367143702   -1.0749914073    0.6224495611
 H   -3.8116949123   -1.1848553435   -1.1330363850
 H   -3.6349603039   -4.0217032679   -0.9270116460
 H   -2.3655815198   -4.6142244628    0.1606430622
 H   -3.8581703790   -3.9139047970    0.8142858077
 H   -0.3446101145   -2.7681757059    0.3028148030