18

 C   -0.0753651384    1.5532831521    0.0777759475
 C    0.0605409967    0.0284456807    0.0173944922
 C    0.7824802005   -0.4448110268   -1.2483156205
 N    0.7286306248   -0.4772536777    1.2115747855
 N    2.0245302994   -0.1234417861    1.5168502073
 C    2.2822529588   -0.7464348776    2.6227799043
 N    1.2151600994   -1.4899309109    3.0529318113
 C    0.1656157875   -1.3334564709    2.1377793520
 O   -0.9436565578   -1.8268497743    2.1634370377
 H    0.9109973092    2.0253967138    0.0993552964
 H   -0.6146842826    1.9185153368   -0.8010946499
 H   -0.6251871543    1.8608720706    0.9716480156
 H   -0.9321858643   -0.4297480667    0.0656276577
 H    1.8020533311   -0.0500365199   -1.2783234405
 H    0.8336584220   -1.5366403457   -1.2831587181
 H    0.2501624628   -0.0963637921   -2.1382044139
 H    3.2236299830   -0.6893342324    3.1459157658
 H    1.1480710422   -2.0638464728    3.8750155095