20

 C   -0.3869419155    1.5803242962    0.0117604225
 C    0.0184554107    0.1048749244    0.0600009238
 N    0.9864123182   -0.2335615908   -0.9883374912
 C    1.5153582234   -1.5773195090   -0.6933411316
 C    1.4459849485   -1.6778634341    0.8542905807
 C    0.8214177159   -0.3339701175    1.3237733815
 N    1.7735282438    0.7153769504    1.6786784884
 C   -1.2084699295   -0.7335603977   -0.0396374395
 N   -2.1429888776   -1.4045617018   -0.1616047291
 H    0.5002828954    2.2050194387    0.1032026229
 H   -0.8972055801    1.8040258405   -0.9299003050
 H   -1.0685038885    1.8166001441    0.8328332722
 H    0.5920376433   -0.1621739618   -1.9195680249
 H    0.9170530722   -2.3764293217   -1.1519516390
 H    2.5349566604   -1.6639274881   -1.0808658559
 H    0.8195638070   -2.5220045113    1.1529909050
 H    2.4285631976   -1.8204084841    1.3101132208
 H    0.1509475957   -0.4784880188    2.1745312704
 H    2.2964762707    0.4341126860    2.5020160922
 H    2.4462632584    0.8241095463    0.9242970460