18

 C   -0.7649857563    1.2174550684    0.3887179550
 C   -0.2320219620   -0.1998429853    0.2066392418
 C    0.7396709079   -0.3717350012   -0.9980383027
 C    1.9487542869   -0.3694251487   -0.0259317193
 C    0.9780663520   -0.6117135076    1.1522404467
 C    1.1678686759    0.2002799227    2.3978438345
 O    1.9300241937    1.1273618095    2.5244405254
 C    0.2852071400   -0.1860609753    3.5258891567
 N   -0.4136844405   -0.5034102359    4.3910723038
 H    0.0425435926    1.9569900600    0.4007044206
 H   -1.4359434933    1.4700774524   -0.4387798167
 H   -1.3316536159    1.3225641768    1.3197722102
 H   -1.0583937129   -0.9134192122    0.2397706560
 H    0.6096070632   -1.3327679595   -1.5017338696
 H    0.7107783681    0.4209431909   -1.7496404600
 H    2.7189331187   -1.1272237601   -0.1792956249
 H    2.4298512192    0.6067176730    0.0590829424
 H    0.8853589626   -1.6665433978    1.4275196301