19

 C   -0.2695070821    1.4612890735   -0.5492689365
 O   -0.0528602407    0.1738982444   -0.0102032581
 C   -1.2119720765   -0.5929730052    0.0552750309
 C   -1.6981933257   -1.4191913769   -1.1875984405
 C   -0.4225881070   -2.2950461685   -1.0302032240
 C   -1.0326302557   -2.0918727245    0.3884762948
 N   -2.4429380741   -2.2447412574   -0.1561675011
 C   -2.9025780537   -3.5767535093   -0.5299038107
 H    0.6813330190    1.9967741953   -0.5012407857
 H   -0.6011641976    1.4167716080   -1.5970328122
 H   -1.0226526074    2.0186452794    0.0279662199
 H   -2.0224732911   -0.0943745259    0.5998959373
 H   -2.1878684474   -1.0694391582   -2.0985967778
 H   -0.4522976993   -3.3002946699   -1.4484757954
 H    0.5354005765   -1.8114112853   -1.2229216153
 H   -0.7312611828   -2.5339696998    1.3398306234
 H   -3.1827354557   -4.1132867719    0.3828270013
 H   -3.8059982011   -3.4712909083   -1.1398883968
 H   -2.1926453177   -4.2074468495   -1.0859586236