19

 C   -0.1065567910    1.5527150311    0.0893306848
 C    1.4391230886    1.4243518300    0.0193808207
 O    1.3060842567    0.1668532634    0.7535541015
 C    0.0232758657    0.0189999416    0.0677001932
 C    0.3097839087   -0.4624982576   -1.4129936581
 C    1.8322629417   -0.4492819085   -1.5808909295
 C    1.9580083781    1.0856635272   -1.4318315983
 C    0.9360245550    1.4914959149   -2.5036509261
 O   -0.1237239731    0.5219554406   -2.3724068241
 H   -0.4084617034    1.9019576355    1.0778939626
 H   -0.6746924686    2.0527722752   -0.6900645928
 H    2.0679335832    2.1444696746    0.5465488802
 H   -0.6680403870   -0.6194684671    0.6213939534
 H   -0.1999834917   -1.3960753999   -1.6560309367
 H    2.3715526721   -1.0122819958   -0.8250891413
 H    2.1209938538   -0.7838285856   -2.5809002119
 H    2.9558211204    1.4872835062   -1.6170833839
 H    0.5262833191    2.4988924698   -2.3726428844
 H    1.3700123316    1.4266167744   -3.5099530494