18

 C    0.0645512549    1.5715238005    0.0147586022
 C   -0.0052686110    0.0758877012    0.0196981016
 C   -1.1109517428   -0.7126201889    0.0081477998
 N   -2.4218269653   -0.3549273983   -0.0119018763
 C   -0.7871810384   -2.1951880469    0.0816491079
 O   -1.5302140130   -2.9513268756   -0.8722662030
 C    0.7422998827   -2.2384071646   -0.0455457768
 C    1.1895717875   -0.7667682690    0.0300796259
 O    2.3454268557   -0.3936235437    0.0709211877
 H    1.1141943262    1.8761736667    0.0312711000
 H   -0.4004200092    2.0082424280   -0.8789447452
 H   -0.4322985941    2.0109801578    0.8883235002
 H   -2.6662107240    0.5893545971   -0.2639978297
 H   -3.0681465714   -1.0690737384   -0.3133648647
 H   -1.1191698275   -2.5915843463    1.0480285724
 H   -1.2058692629   -2.7146512853   -1.7491285773
 H    1.2322057444   -2.8350156795    0.7276884170
 H    1.0420849781   -2.6623577248   -1.0108518618