17

 C   -0.0035668162    1.4559385674    0.4021170072
 C   -0.0824157276   -0.0368582465    0.1792467047
 C   -1.3053951300   -0.6629774686   -0.3358178299
 O   -0.1722090172   -0.4592631976   -1.1817619440
 N    1.3344283090    1.9779155349    0.1757883612
 C    2.1672872176    2.5606004402    1.1095399829
 C    3.3140096051    2.8797982821    0.4331089207
 N    3.2144494341    2.5106706565   -0.8882079350
 C    2.0209597001    1.9748447413   -1.0071944410
 H   -0.7140002876    1.9555159479   -0.2654620579
 H   -0.2861961816    1.6945801436    1.4315886849
 H    0.5965800878   -0.6333682751    0.7892720669
 H   -1.5246692545   -1.6994339613   -0.0865570372
 H   -2.1740238855   -0.0454660664   -0.5612527479
 H    1.8598988199    2.6906842746    2.1343846919
 H    4.2024260501    3.3553921088    0.8200444836
 H    1.5918588865    1.5584327783   -1.9060736912