15

 O    0.0207002390    1.3903218182   -0.1422467860
 C    0.0315562196   -0.0177327756   -0.0131531351
 C    0.6783439463   -0.4680145499    1.2917691929
 O    0.5337287725   -1.8751359452    1.4688160562
 C   -0.6637685416   -2.4594699123    1.2385969245
 N   -0.9012295745   -3.5817049864    1.7628769439
 O   -1.5217650489   -1.8574112483    0.3669839517
 C   -1.4184447173   -0.4683479149    0.0441527038
 H    0.9122707461    1.6868670193   -0.3496781758
 H    0.5352835709   -0.5058733351   -0.8599653975
 H    1.7553185839   -0.2800336465    1.3061534921
 H    0.2205123413    0.0766343156    2.1290702730
 H   -1.8097698975   -3.9163919374    1.4487078876
 H   -1.9476485740    0.1320258346    0.7962468806
 H   -1.9215324257   -0.3413640362   -0.9163501719