23

 C   -0.0967400009    1.6431180024    0.1025667458
 C   -0.1368494250    0.1131235947    0.1037565510
 C    0.8299140786   -0.5125298472    1.1216551322
 C    0.8164260834   -2.0070073162    1.1293546109
 C   -0.1661811930   -3.0304739061    1.6568462551
 C   -0.2116574878   -3.7685626375    0.3223644864
 C    1.1671132225   -3.1150575266    0.0343573442
 C    2.1194237561   -3.7684652177    1.0719224017
 C    1.3011400352   -3.0323821898    2.1287763203
 H    0.9057177186    2.0134259993   -0.1400759291
 H   -0.7920761972    2.0608074080   -0.6322467052
 H   -0.3677274392    2.0475325974    1.0844186925
 H   -1.1554677554   -0.2321867500    0.3203084717
 H    0.1057669103   -0.2617268984   -0.8988905277
 H    1.8485126970   -0.1494995903    0.9200256464
 H    0.5781654399   -0.1535071932    2.1296392570
 H   -0.9711779638   -2.8692923863    2.3637788150
 H   -0.2576060564   -4.8646106262    0.3200007169
 H   -0.9952305368   -3.3682237991   -0.3272814702
 H    1.4956202836   -2.9336840142   -0.9876707192
 H    2.1628110030   -4.8643301176    1.0953022885
 H    3.1335818394   -3.3641556744    1.0040944523
 H    1.5438173078   -2.8668154710    3.1716146734