14

 C   -0.0302966486    1.4748930255    0.0571175143
 C   -0.0012155528   -0.0130137074   -0.0379456916
 C   -0.0417765035   -0.8036568100   -1.1143218271
 C    0.0133242938   -2.2071993430   -0.6966025068
 N   -0.0036640446   -3.2320791429   -1.4399936976
 O    0.0891170300   -2.2342084879    0.6802150106
 C    0.0856311600   -0.8981340161    1.1795266064
 H    0.8691004687    1.8557508150    0.5566386047
 H   -0.0945884316    1.9369000839   -0.9304489452
 H   -0.8868466172    1.8153283504    0.6520289447
 H   -0.1051475488   -0.5132907269   -2.1528346255
 H    0.0466751697   -4.0821516684   -0.8763580552
 H    1.0017119549   -0.7238968491    1.7614586832
 H   -0.7686984701   -0.7646481832    1.8581346950