20

 C    0.0670979208    1.4023590483   -0.0184092695
 O    0.0276284338   -0.0035982900    0.0085380138
 C    0.7106621244   -0.5523357075    1.1136850348
 C    0.6264811424   -2.0846659408    1.0227859117
 C    1.2988769562   -2.6114199173   -0.2597564037
 C    1.1993544782   -2.6871473265    2.2256269457
 C    1.6924459464   -3.1698187984    3.2128498686
 C    2.2784730069   -3.7634968451    4.4066259230
 H    1.0993193705    1.7815110039   -0.0850842496
 H   -0.4867852254    1.7293556963   -0.9018617472
 H   -0.4005190961    1.8418390769    0.8770861957
 H    1.7676816028   -0.2361750109    1.1168522216
 H    0.2610979165   -0.2077101051    2.0585729646
 H   -0.4423743545   -2.3348441741    0.9760763138
 H    2.3719603491   -2.3952082381   -0.2457901548
 H    1.1731161137   -3.6937099063   -0.3452765611
 H    0.8567231304   -2.1299001323   -1.1344529632
 H    3.0543517611   -4.4932671062    4.1495367257
 H    2.7407367934   -3.0020921102    5.0447849354
 H    1.5227411994   -4.2823647266    5.0068956944