19

 C    0.0076217228    1.5581612641    0.1389346615
 C   -0.0225352579    0.0380313927   -0.0261208834
 C    0.7245888747   -0.4780701549   -1.2794665740
 O    2.0771950532   -0.0221207698   -1.2934011026
 C    0.6580953120   -2.0220097216   -1.3645349710
 C    1.3862063079   -2.6143818782   -2.5719691817
 C    0.1012857786    0.1021112296   -2.4894764970
 N   -0.4349167578    0.5293887678   -3.4190041805
 H    1.0361603099    1.9273124935    0.1481650716
 H   -0.5196327288    2.0540772635   -0.6812030724
 H   -0.4738015218    1.8504848932    1.0762140827
 H    0.4461119772   -0.4476909370    0.8406518203
 H   -1.0557663715   -0.3249018773   -0.0626542939
 H    2.5054317149   -0.3886601967   -0.5109370466
 H    1.0933723865   -2.4065680355   -0.4320700479
 H   -0.3946753662   -2.3258085530   -1.3626018531
 H    0.9181668787   -2.2977902080   -3.5085917070
 H    2.4299782221   -2.2913388331   -2.5927268530
 H    1.3623786554   -3.7069662894   -2.5344472920