18

 O    0.0088174193    1.4162093950   -0.0129216099
 C   -0.0160998706    0.0210184880    0.0505097758
 C    0.2496768228   -0.6057712441    1.4552383122
 C   -1.1046123569   -1.3258336319    1.3631411204
 C   -2.1944440574   -0.2880018729    1.2374288081
 C   -1.3882109862   -0.6621678972    0.0231888582
 N   -1.9661547412   -1.1625720519   -1.1830643971
 C   -2.0532544842   -0.3837265386   -2.2882947720
 O   -1.6382957637    0.7598990407   -2.3687054363
 H   -0.4645366673    1.6372308776   -0.8304863519
 H    0.6377616817   -0.4383698583   -0.7053290456
 H    1.1175598096   -1.2672649575    1.4658424333
 H    0.3336633038    0.1180998698    2.2698312288
 H   -1.3098702335   -2.3421089415    1.6786094129
 H   -3.2088804189   -0.6740729629    1.2366648114
 H   -2.0749004041    0.6928047571    1.6895005463
 H   -2.3340542528   -2.1006040602   -1.2200675686
 H   -2.5373496802   -0.9022598710   -3.1365814461