17

 C   -0.1091036069    1.2678244457   -0.3729003963
 C    0.1067383812   -0.1597013713    0.0356039181
 O   -1.1244914683   -0.9061775944    0.1987502027
 C   -0.7130173593   -1.4102975110    1.4980309535
 C    0.6648012697   -0.7580017758    1.3503243796
 O    1.5984708471   -1.5813225753    0.6250318208
 C    1.2068657019   -1.0211973789   -0.6495021204
 C    0.7020085719   -2.0461044079   -1.6446555970
 O    0.5932317144   -1.8140619939   -2.8202958816
 H    0.8374241367    1.8155708038   -0.4008763033
 H   -0.5549891429    1.3014902944   -1.3728534621
 H   -0.7902660122    1.7682282505    0.3209450218
 H   -1.3400668139   -0.9963799482    2.2974099012
 H   -0.7102829851   -2.5035385194    1.5503961128
 H    1.1209783400   -0.2257375896    2.1861129886
 H    2.0151494303   -0.4333813264   -1.1017102500
 H    0.4278009554   -3.0244944823   -1.1961670684