12

 C   -0.0133040219    1.4900646652    0.1184605869
 O    1.2790678704    2.0045625059   -0.3362797285
 C    2.2689126475    1.2048825884   -0.7452398232
 N    2.3098733566   -0.0765814225   -0.8254226350
 C    1.1282093534   -0.6446399908   -0.4143597599
 C    0.0180372253    0.0039215443    0.0316608788
 N   -0.9132093222   -0.9419358592    0.3304620479
 N   -0.4558751643   -2.0970093542    0.1017783213
 O    0.9061829774   -1.9471600265   -0.3975365017
 H   -0.1561153207    1.8657101302    1.1377417740
 H   -0.7737572831    1.9496542530   -0.5225820008
 H    3.1314938516    1.7980323661   -1.0362090798