19

 O    0.1140419807    1.4240386980   -0.1718506080
 C    0.0677127493    0.0099240152   -0.0111209395
 C    0.7492790487   -0.4626940697    1.2729988538
 O   -0.1223879322   -0.3264996314    2.3905027536
 C   -1.4272293942   -0.7730674528    2.1190657825
 C   -1.6939573866   -1.7373472752    0.9147116649
 C   -3.1595755369   -1.2354639757    0.9565829675
 C   -2.3027727062    0.0446125846    1.1244312972
 C   -1.3717381949   -0.5079412305   -0.0067372783
 H   -0.2851093597    1.8128346220    0.6146386752
 H    0.6152686506   -0.3900339811   -0.8716426039
 H    1.0529079344   -1.5150456293    1.1628622603
 H    1.6386102576    0.1361640613    1.4849162240
 H   -1.8872528532   -1.0334017468    3.0758593680
 H   -1.3546928425   -2.7667677055    0.7904466658
 H   -3.7185250599   -1.3187373386    0.0218809275
 H   -3.7643556323   -1.5417091145    1.8150916085
 H   -2.6605227852    1.0690290847    1.2427483755
 H   -1.8198556076   -0.5261168846   -1.0041525046