23

 C    0.0621166155    1.5402674135   -0.2383828742
 C    0.0227792261    0.0469690557   -0.0447916207
 O    1.2820476621   -0.6481413899   -0.1043386361
 C    0.5857667619   -0.6282728717    1.1308897532
 C    1.1076743742   -0.0226631509    2.4351028821
 C    0.2195661287   -1.0558382309    3.2006298258
 C   -1.0733021373   -0.4605488297    3.7508885284
 C    0.0818407162   -1.8757352509    1.8656604589
 C   -1.2352422513   -2.5266393029    1.4694418675
 H    0.8745381574    1.9895667433    0.3380832473
 H    0.2164675955    1.7864931099   -1.2942400482
 H   -0.8843880744    1.9942943398    0.0761483279
 H   -0.7782580864   -0.4662299839   -0.5809465887
 H    2.1786198978   -0.2053705114    2.5613464312
 H    0.9053461014    1.0358260972    2.6218310043
 H    0.7401073893   -1.5965033210    3.9954356819
 H   -1.6064131174    0.1222685380    2.9912995582
 H   -1.7546889752   -1.2377709948    4.1125831696
 H   -0.8595474105    0.2117840132    4.5887500350
 H    0.8817443679   -2.6257817048    1.8342813718
 H   -2.0654444869   -1.8138696459    1.4820442354
 H   -1.1692342883   -2.9444836777    0.4589249468
 H   -1.4897876565   -3.3487173641    2.1472882128