18

 C    0.1111340463    1.5136359027    0.0385785156
 C   -0.0265714906    0.0060043419   -0.1441367598
 N    0.7621942811   -0.6649092434    0.9971431261
 H   -0.0073943499   -0.7853348514    1.7111653804
 H    1.1411657603   -1.5755420542    0.7451950264
 H    1.5121766992   -0.0730031716    1.3502903922
 C   -1.4596558513   -0.4922691049    0.0179109131
 C   -1.7534523646   -1.8552071214    0.4769286737
 O   -1.7468219933   -0.7729067820    1.4297628527
 C   -2.5445227106    0.1984035288   -0.9006156881
 O   -2.0092533232    0.8322751696   -1.8333416811
 O   -3.7070791152   -0.0547273834   -0.5914864241
 H    1.1576613641    1.8304251101   -0.0402244348
 H   -0.4805681451    1.9736129085   -0.7533851839
 H   -0.2912636078    1.8290374221    1.0074794396
 H    0.4023522566   -0.3192980210   -1.0915566413
 H   -2.7490385521   -2.2235258448    0.2457700426
 H   -0.9851861141   -2.6167362256    0.6307075208