25

 C    0.1417048299    1.4571415974   -0.2515868668
 C    0.0019395439   -0.0411633572    0.0339897388
 C    0.5620990317   -0.4188556658    1.4008804132
 O   -1.3594628532   -0.4586435843    0.0280840501
 C   -1.9613274688   -0.5515936313   -1.2443570931
 C   -3.3451547104   -1.1990833141   -1.0941770537
 C   -3.2199025433   -2.6246206713   -0.5451959273
 C   -4.2499720810   -0.3362617530   -0.2066745091
 O   -3.8398632564   -1.2226933442   -2.4378943578
 H    1.1949396448    1.7542636175   -0.2232017978
 H   -0.2501506963    1.7208082956   -1.2378112634
 H   -0.4018690635    2.0375181331    0.5011372535
 H    0.5448029631   -0.6036847720   -0.7447946427
 H    0.0241254689    0.1142930395    2.1914026612
 H    0.4516410585   -1.4922781612    1.5758491858
 H    1.6227782134   -0.1599514977    1.4697081347
 H   -2.0881604203    0.4351136160   -1.7133852356
 H   -1.3495412776   -1.1669532012   -1.9230687401
 H   -2.7266816173   -2.6207595507    0.4297371841
 H   -4.2083909427   -3.0843539450   -0.4295519351
 H   -2.6337964326   -3.2418096248   -1.2327172578
 H   -4.3843340700    0.6523728391   -0.6556704887
 H   -5.2376084318   -0.7988682306   -0.0944074017
 H   -3.8134554387   -0.2124695804    0.7873397386
 H   -4.7164369802   -1.6201018233   -2.4181930194