20

 C   -1.3013231640    1.4613148488   -0.6641780392
 C   -0.1316498986    0.5338945435   -0.2892104926
 C   -0.5777197031   -0.5658784945    0.5642842773
 C   -0.9612467517   -1.4716951512    1.2561369658
 C    0.5476175522   -0.0064797203   -1.5799487086
 O   -0.0117216619    0.1129674040   -2.6556298341
 N    1.7787959589   -0.5895307277   -1.4501603656
 C    2.4615582055   -1.0533388488   -2.6482884292
 C    2.5218891587   -0.7475354982   -0.2134684872
 H   -0.9385594278    2.3024605099   -1.2589967264
 H   -2.0369416951    0.9200807670   -1.2596148258
 H   -1.7786754750    1.8409622759    0.2424671197
 H    0.6101346574    1.1221499755    0.2662080943
 H   -1.3027991926   -2.2704741569    1.8668683466
 H    3.4178019203   -0.5295459007   -2.7736355857
 H    2.6672581925   -2.1287366058   -2.5804922002
 H    1.8231498509   -0.8572313036   -3.5073458225
 H    2.9309077394   -1.7635457796   -0.1625716057
 H    3.3654682284   -0.0448977697   -0.1596529488
 H    1.8860076257   -0.6127007878    0.6580919676