19

 C   -0.4335361455    1.3935677108   -0.1254265563
 C   -0.0522812841   -0.0759159759   -0.0541200820
 N    1.2703776691   -0.4204602418   -0.7111435351
 C    1.8434857174   -0.5915277148    0.5394657860
 N    2.9372328097   -0.3876224535    1.1567155116
 C    2.5192867237   -0.4457641747    2.5903525113
 C    1.0025056363   -0.0252270996    2.6200616552
 O    0.8583094808    1.3808217408    2.7044331532
 C    0.5490715018   -0.6718149867    1.2820094173
 H    0.3752680221    2.0427533290    0.2151036972
 H   -0.6836419906    1.6666978655   -1.1566547027
 H   -1.3076375307    1.5929101167    0.5003484770
 H   -0.8592484244   -0.6936191676   -0.4584027680
 H    1.6971630556    0.1773286600   -1.4103872791
 H    2.6651088229   -1.4512051695    3.0075618250
 H    3.1198826472    0.2486143044    3.1867168101
 H    0.4661097412   -0.4300976436    3.4823419399
 H    1.5528256747    1.7780713004    2.1671266602
 H    0.1827577228   -1.6864429700    1.4588425192