18

 C   -0.0075719642    1.5316926905    0.0373126925
 C    0.0309644497    0.0432235931   -0.0217573751
 C    0.0017013832   -0.7471968809   -1.1080428974
 C    0.0404977473   -2.2248770347   -0.7588833625
 C    0.4500866283   -2.2041037534    0.7298481289
 C    0.0777197032   -0.8016060124    1.2428805159
 O    1.0454367780   -0.3686887271    2.1900144077
 C   -0.0927065073   -0.2857921920   -2.4491647680
 N   -0.1682443799    0.0721024594   -3.5491432453
 H    0.8639769913    1.9083559636    0.5850349353
 H   -0.0172144754    1.9808212475   -0.9579394827
 H   -0.8982828953    1.8772219257    0.5792090049
 H   -0.9477632301   -2.6781823281   -0.9057341057
 H    0.7385469381   -2.7842544248   -1.3885491988
 H   -0.0063064405   -3.0047013735    1.3150549428
 H    1.5363112205   -2.2966191691    0.8240634941
 H   -0.9232241304   -0.8009246574    1.7075966695
 H    0.6642620835    0.3379904537    2.7194022040