16

 C    0.1180878574    1.5854458276   -0.0230031631
 C   -0.0347816074    0.0556931075    0.0323903829
 C    0.6595532594   -0.6244234946   -1.1293870087
 C    1.7832136569   -1.2726505748   -0.7871730314
 C    1.9914019106   -1.1264535389    0.6646613549
 O    2.9858996724   -1.3170514701    1.3307966283
 C    0.6792469452   -0.5850005864    1.2491651165
 O    0.9061847606    0.2662587471    2.3390644145
 H    1.1729940154    1.8733006941   -0.0226832919
 H   -0.3480312886    1.9869443809   -0.9281577015
 H   -0.3544039893    2.0421895012    0.8488740073
 H   -1.1047335401   -0.1832329607    0.0263501058
 H    0.2773457260   -0.5395560166   -2.1421835625
 H    2.4789627341   -1.7737728625   -1.4475278945
 H    0.0944206595   -1.4693108209    1.5603152763
 H    1.7805872979    0.0215308071    2.6778968371