15

 O    0.0089628474   -0.0275309476   -0.0466017749
 C   -0.0380006617    1.1741023169    0.0217983616
 C   -1.2965694930    2.0617803378    0.0662211873
 C   -0.7764796704    3.4868999081    0.0304898164
 C    0.7233829639    3.4076372391    0.0393906307
 N    1.0542183611    2.0253513086    0.0609320391
 C    0.0040037050    3.9645774805   -1.1979272646
 C   -0.0181981756    3.2275103164   -2.4264978343
 N   -0.0364175526    2.6259588170   -3.4147346231
 H   -1.9426292865    1.7986317822   -0.7754423304
 H   -1.8535558418    1.8612895065    0.9857486472
 H   -1.2899635220    4.2565894061    0.5920567632
 H    1.3488397467    4.0804139713    0.6143851638
 H    1.9698557261    1.6731682783   -0.1715685499
 H    0.0502515936    5.0418207888   -1.3221384621