21

 C    0.0062005329    1.5156355689   -0.1844093605
 C    1.5729216130    1.4819146515    0.0743897933
 C    1.3540124891    0.1605275102    0.8921899943
 C    1.0457881112    0.2966641893    2.3860859742
 C   -0.1020360966   -0.7411105471    2.5334213104
 C   -0.2087963397   -1.2161110765    1.0887944401
 C    1.2737467263   -1.3605162108    0.4992458380
 C    0.7298430956   -0.9776775653   -0.8827428455
 C    0.0334966188   -0.0065191191    0.1111924569
 H   -0.5155882649    2.1018060604    0.5768470563
 H   -0.3419007475    1.8302814457   -1.1721307853
 H    2.1451372094    1.3745859504   -0.8480872765
 H    1.9925758144    2.3149607355    0.6429415264
 H    1.9143931337    0.0596568975    3.0098163247
 H    0.7270805210    1.3095903322    2.6543460286
 H    0.1483776379   -1.5651900871    3.2092470477
 H   -1.0326441447   -0.2926019814    2.8956813675
 H   -0.9384740530   -1.9939814715    0.8463617967
 H    1.9621516684   -2.1771994355    0.7468238425
 H    1.4394205701   -0.5511498161   -1.5951132530
 H    0.0823727048   -1.7067688313   -1.3786194566