16

 O   -0.0376236286   -0.1166404944   -0.2933308381
 C    0.0019825409    1.0594356090   -0.0259923239
 C    1.2513342106    1.8848086675   -0.0042472175
 C    1.2017298143    3.2999884370   -0.6451448338
 C    0.4622937285    3.9476337487    0.5794116901
 C    1.5026770798    5.0779227932    0.7000041131
 C    2.3266426951    3.8387198276    0.3019689742
 C    1.4478489821    2.8794745848    1.1741320215
 H   -0.9306989367    1.6145021045    0.2291801616
 H    2.1166557638    1.2676270968   -0.2640250121
 H    1.0618935630    3.5560905075   -1.6962358149
 H   -0.6150031347    3.9969590848    0.7365306273
 H    1.4402677213    5.8853610486   -0.0364390673
 H    1.6754885983    5.4836040233    1.7018773858
 H    3.3997113168    3.7390238559    0.1337267342
 H    1.5931407355    2.6481147152    2.2301876998