18

 C    0.0353042424    1.5101962341    0.0096915319
 C    0.0301835800    0.0540129431    0.0021196899
 C    0.0362136454   -1.1500629477   -0.0042667799
 C    0.0099146450   -2.6083408269   -0.0119295086
 C   -1.4192569601   -3.1843270677   -0.0013562794
 C   -1.4171792364   -4.7255801261   -0.0096935855
 C   -2.7591796061   -5.2939657432    0.0001599006
 C   -3.8766273623   -5.7367191073    0.0083640904
 H    1.0575461414    1.9047651251    0.0018924518
 H   -0.4814572687    1.9162677941   -0.8670350607
 H   -0.4643965866    1.9070127002    0.9004340198
 H    0.5452235514   -2.9829868187   -0.8955037896
 H    0.5620267238   -2.9924813504    0.8571087233
 H   -1.9530312284   -2.8243538486    0.8834975119
 H   -1.9698453902   -2.8148800885   -0.8718870926
 H   -0.8743580057   -5.0862729281   -0.8937912161
 H   -0.8575174242   -5.0957335014    0.8598716824
 H   -4.8595215609   -6.1379012620    0.0148474705