6

 C    0.6809802060    0.0000000000    0.0000000000
 C   -0.6809802060    0.0000000000    0.0000000000
 C   -1.8876660283    0.0000000000    0.0000000000
 C    1.8876660283    0.0000000000    0.0000000000
 H   -2.9495999954    0.0000000000    0.0000000000
 H    2.9495999954    0.0000000000    0.0000000000