20

 C   -0.0262009955    1.5375225198    0.0073495839
 C    0.0011870601   -0.0032281163   -0.0132432498
 C   -1.4408768236   -0.5465749404    0.0006976396
 C    0.8152188702   -0.5517994439   -1.2305933668
 C    1.9682188921   -1.3335839071   -0.6227779637
 C    1.8542140381   -1.2617749110    0.8327403558
 C    0.7818789483   -0.5367058295    1.1726315818
 N    2.8395002927   -1.9200633397   -1.3518527853
 O    3.8081333605   -2.5780361978   -0.5675372404
 H    0.9873980199    1.9499342098   -0.0083118804
 H   -0.5663011286    1.9263799811   -0.8629249532
 H   -0.5285525498    1.9112904489    0.9064111912
 H   -1.9989269321   -0.1847663030   -0.8699172460
 H   -1.4499772694   -1.6407570492   -0.0192774631
 H   -1.9765038822   -0.2211760526    0.8993589717
 H    0.2027567420   -1.1967012542   -1.8675515485
 H    1.1873145960    0.2579016497   -1.8651077359
 H    2.5550927959   -1.7388231312    1.5025741720
 H    0.4673312088   -0.3273076064    2.1908213696
 H    4.3802661466   -2.9624303970   -1.2392767823