16

 C    0.0234620981    1.5166263703   -0.1075114028
 O    1.2607021052    2.1390596506    0.2933689321
 C    2.2781946747    1.2201847441    0.1058201463
 O    3.5946290339    1.6991657661    0.4123714815
 C    4.2200209891    0.5358875847    0.7887185457
 N    3.5261336611   -0.4930739279    1.0755862959
 C    2.1437256689    0.0327192056    1.0394174725
 C    0.9342325217   -0.7310594331    0.5956316508
 C   -0.0529911159    0.0126397167    0.0883857462
 H   -0.7602451656    2.0175585473    0.4713532177
 H   -0.1656978002    1.7451080490   -1.1695509291
 H    2.3039766592    0.8829279620   -0.9465298586
 H    5.3018027422    0.5992244250    0.8151739335
 H    1.9451147099    0.4236852331    2.0508821418
 H    0.8568887821   -1.8050946788    0.7239656401
 H   -0.9897455444   -0.4345070248   -0.2336272837