20

 C   -0.1271392881    2.0740158723   -0.8658474975
 C   -0.0580349066    0.6308722309   -0.3401738506
 C   -1.4473246664    0.0124189607   -0.2273011385
 C   -1.7468670835   -1.0177918720    0.7979688476
 N   -2.3173234799    0.3382489321    0.9087557028
 C    0.7690315823   -0.2426407129   -1.2743780032
 O    0.5625615863   -0.2885147804   -2.4697422520
 C    1.8714341248   -1.1018600983   -0.6785493775
 O    2.4988240346   -1.8818235979   -1.6476060871
 H    0.8634322858    2.5384335779   -0.8832799623
 H   -0.5228757629    2.0804006199   -1.8843000842
 H   -0.7801260924    2.6805463204   -0.2323653073
 H    0.4058226448    0.6160839596    0.6557447660
 H   -1.9727353300   -0.0390860590   -1.1784332697
 H   -2.4669745351   -1.8037836295    0.5912704309
 H   -0.9519523812   -1.3033798965    1.4833261166
 H   -1.8005283290    0.8732605131    1.6038220203
 H    2.5859691106   -0.4272891591   -0.1739230115
 H    1.4277831554   -1.7238616840    0.1178210164
 H    2.0587294705   -1.6474260772   -2.4811272291