19

 C    0.8230788404   -0.1630655311   -1.3617857179
 C    0.0747720531    0.0683552145   -0.0544664855
 O   -0.0637475865    1.4738285486    0.1238003537
 C   -1.3204346201   -0.5410761588   -0.0834395629
 C   -1.7171726639   -1.9642024077    0.3900863325
 C   -1.4775884402   -1.4368640952    1.8204490219
 N   -2.2035902392   -0.2473569497    1.1592487274
 C   -3.1188172395   -1.3374914692    0.5682651154
 H    1.7884402485    0.3492890271   -1.3332781686
 H    1.0013409214   -1.2304138848   -1.5260532991
 H    0.2518658607    0.2339308127   -2.2068346700
 H    0.6756016530   -0.3548535809    0.7645088712
 H   -0.7645708308    1.5996950317    0.7767495477
 H   -1.8223421547   -0.1964674748   -0.9956379486
 H   -1.4496213227   -2.9342370473   -0.0423693494
 H   -2.0560726324   -1.8900791054    2.6299675861
 H   -0.4618094188   -1.2217904748    2.1511339107
 H   -3.6608692246   -1.0158243313   -0.3249726521
 H   -3.7900381337   -1.7824334837    1.3074077974