20

 C   -0.1823111283    1.5678845521    1.0241204106
 C   -0.0859938020    0.1008091416    0.6386149849
 C    0.9480436824   -0.3953907704   -0.4256825714
 N    2.2516410780    0.0195589468    0.1407349819
 C    2.0919078141   -0.2303410190    1.5073435212
 O    2.8288995438    0.0789308195    2.4095961756
 C    0.7238884391   -0.9296775093    1.5211423869
 C    0.8465165607   -1.8113734474    0.2219117893
 C   -0.3148585516   -2.7269876333   -0.1399743539
 H    0.7944350023    2.0108703774    1.2389860332
 H   -0.6481730767    2.1478111245    0.2196728736
 H   -0.8014709598    1.6903858888    1.9189768162
 H   -1.0840485205   -0.2869937955    0.4267301577
 H    0.8557706782   -0.2158173532   -1.4968043105
 H    2.7167528148    0.8656108275   -0.1539454717
 H    0.3785841276   -1.3055213651    2.4820090677
 H    1.7852465089   -2.3680627115    0.1499650174
 H   -1.2934739914   -2.2450725170   -0.0773791277
 H   -0.1955081786   -3.1051937635   -1.1612721933
 H   -0.3311013209   -3.5932961131    0.5297320622