21

 C   -0.0357519172    1.6259220253   -0.0498246087
 C    0.0206000615    0.0970729870    0.0328672180
 C    0.7160359560   -0.5172857414   -1.1856063063
 C    0.7285492051   -2.0811523237   -1.2375915186
 C    1.4870651783   -2.6813675251   -0.0222185323
 C   -0.6494045379   -2.5976817910   -1.2578014181
 C   -1.7768520395   -3.0133067770   -1.2509657253
 C    1.4146016924   -2.4902487343   -2.4735946466
 C    2.0064049464   -2.8004393567   -3.4720655867
 H    0.9687966677    2.0598009309   -0.1071876150
 H   -0.5882884668    1.9546017362   -0.9368196105
 H   -0.5317211967    2.0507864276    0.8282446627
 H    0.5430023791   -0.1939559091    0.9515675615
 H   -0.9950883863   -0.3068709777    0.1106323800
 H    0.2314869748   -0.1609185131   -2.1009398822
 H    1.7596451752   -0.1842838702   -1.2328409512
 H    0.9679032364   -2.4446442433    0.9086374140
 H    1.5500057197   -3.7671550362   -0.1165998045
 H    2.5012668068   -2.2742578662    0.0180503705
 H   -2.7707542561   -3.3873539024   -1.2593293206
 H    2.5158590612   -3.0834924097   -4.3597637401