21

 O    0.5807539949    0.8820367067   -0.7065298554
 C    0.1098504528   -0.2256215011    0.0178618833
 C    0.1398781172   -0.1724182908    1.5929684197
 C   -1.3418332083   -0.6322476289    1.6153772509
 C   -2.4569076794    0.4425463380    1.7523804828
 C   -2.4483624524    0.6214877505    0.1887296513
 C   -1.4201896816   -0.5336811134    0.0794954824
 C   -1.8987120542   -2.0092206737   -0.0102199938
 C   -1.7181809915   -2.1390199631    1.5492987316
 H    0.1445142367    1.6714000329   -0.3691195640
 H    0.6665292086   -1.0821347516   -0.3762532872
 H    0.8763531445   -0.8176367968    2.0807125041
 H    0.2797625837    0.8459271923    1.9742971771
 H   -3.4009564379    0.0576206511    2.1492632021
 H   -2.1878670456    1.3307286359    2.3323450396
 H   -3.4035644843    0.4456273217   -0.3136801731
 H   -2.0772134468    1.5928030560   -0.1568342812
 H   -2.9312434976   -2.1242377588   -0.3530509204
 H   -1.2690460020   -2.6703809684   -0.6134142390
 H   -0.9104517177   -2.8125324586    1.8510547403
 H   -2.6166149691   -2.4240012897    2.1044233988