23

 C    0.1292103595    1.6263212044    0.2510186391
 C   -0.0501705779    0.1279913004    0.1459896491
 C    1.0831132370   -0.7495401801   -0.3796402912
 C    0.7018486427   -0.7851524588    1.0643116362
 O    1.5763940339   -0.2660731468    2.0685091423
 C    1.1144448494   -1.2495796576    3.0202150435
 C    0.2108867268   -1.9364171837    1.9606834041
 C   -1.2810768294   -1.9369874903    2.2806477147
 C    0.7003745756   -3.3185789129    1.5317956176
 H    1.1252781844    1.8707914304    0.6296213141
 H    0.0011603567    2.1118454577   -0.7224251278
 H   -0.5997852426    2.0625645618    0.9427724424
 H   -1.0526405175   -0.1979769861   -0.1246753500
 H    0.8413790546   -1.5970797648   -1.0137614101
 H    2.0218333645   -0.2584414018   -0.6185640365
 H    1.9406944836   -1.8552734508    3.4107212056
 H    0.5783863855   -0.7849468549    3.8574435861
 H   -1.6247751566   -0.9424031395    2.5803126905
 H   -1.8723378527   -2.2497222259    1.4125162372
 H   -1.5036253736   -2.6340406117    3.0966349835
 H    0.5301957520   -4.0556253493    2.3248697571
 H    0.1689131087   -3.6653989049    0.6385269173
 H    1.7699298557   -3.3056513348    1.3018531354