22

 C    0.0109161862    1.5062105315   -0.2961379047
 C   -0.1290219152   -0.0062708392   -0.2982621210
 O    0.9198153292   -0.5546157246   -1.0772600001
 C    0.9200811908   -1.9552386036   -1.1204563193
 C   -0.0886737519   -2.6716666619   -2.0685702239
 N    1.0262815979   -3.3763719215   -2.7806936861
 C    1.4442361620   -2.6611885649   -4.0308499874
 C    2.4488995348   -1.7687588299   -3.2527486452
 C    2.0392296352   -2.5590212355   -1.9899436369
 H    0.9753897742    1.8013187210    0.1267326326
 H   -0.0507409278    1.8995527826   -1.3148678377
 H   -0.7850482439    1.9618208566    0.3004080528
 H   -0.0786133532   -0.4031112087    0.7295498303
 H   -1.1071832538   -0.3025804655   -0.7105233647
 H    0.9047175780   -2.3672187054   -0.1002159162
 H   -0.7875624075   -3.3657131660   -1.5921800582
 H   -0.6541474550   -1.9795186208   -2.7043819196
 H    1.9092156694   -3.3501657404   -4.7428895256
 H    0.6235503938   -2.1442852879   -4.5404286162
 H    3.4946939925   -1.8826458328   -3.5442960335
 H    2.2057925528   -0.7062663245   -3.2079346869
 H    2.8297474016   -3.1018079785   -1.4649236423