13

 O    0.0136283192    0.5926891279   -1.1695460289
 C    0.0079356617    1.2411487056   -0.1663488833
 C   -1.2476261599    1.4508188388    0.6904225432
 N   -1.6012928028    2.8013662784    1.0907195275
 C   -0.7986094887    3.7215180533    1.3942797647
 O    0.5618173769    3.7320374049    1.4946700622
 C    1.2052106264    2.4775145210    1.5005473879
 O    1.1710841997    1.8329977515    0.2495023852
 H   -2.0647026918    1.0528914915    0.0853878652
 H   -1.1818208175    0.7995484669    1.5731642185
 H   -1.1760675532    4.7160434367    1.6243721545
 H    2.2549771381    2.6827503156    1.7044599867
 H    0.7806451818    1.8412126179    2.2851111267