16

 O   -0.0018846994    1.4726646256   -0.1481378242
 C    0.0674994370    0.0705354762   -0.0880440287
 C   -1.3275219630   -0.5703689795    0.0335333445
 C   -1.3682467117   -2.1080100716    0.0460530972
 C   -2.2456745070   -2.4879544073    1.2376005002
 O   -2.6312890946   -3.5774066725    1.5668126599
 N   -2.5172881890   -1.3020135727    1.9254350104
 C   -1.9827017128   -0.1636581678    1.3523158126
 O   -2.0195670821    0.9471052154    1.8354124254
 H   -0.5407892084    1.7572185632    0.6044331097
 H    0.5423894707   -0.2711663169   -1.0140174607
 H    0.6968243427   -0.2803228476    0.7488349678
 H   -1.9478721535   -0.1605532802   -0.7714325020
 H   -1.7695729392   -2.5540548622   -0.8656669239
 H   -0.3763291457   -2.5456656261    0.2081429230
 H   -3.0279378841   -1.2874022859    2.7976815986