17

 C   -0.1101328646    1.4971482520    0.0010356875
 C   -0.1200847600   -0.0007589520    0.2459544114
 O   -1.2983822507   -0.5398376814   -0.3416937037
 C   -1.3869040680   -1.9156118812   -0.2563870376
 C   -1.9351385965   -2.5524443007    1.0713978914
 O   -3.2731648498   -2.0006264800    0.7344737393
 C   -2.7883647722   -2.4802712053   -0.5873918501
 C   -2.4013884353   -3.7547122505    0.2122043895
 O   -2.5554797617   -4.9299732459    0.2408422153
 H    0.7830894574    1.9470024618    0.4441259142
 H   -0.1125576351    1.7107132395   -1.0713558830
 H   -0.9930145163    1.9631636898    0.4467365096
 H    0.7691385197   -0.4767282670   -0.1984456859
 H   -0.1043068342   -0.2192858484    1.3246844724
 H   -0.5234163981   -2.4273775032   -0.7096521306
 H   -1.5971642540   -2.4732978449    2.1018424917
 H   -3.4209142509   -2.3107389327   -1.4551821613