21

 C    1.4712140191    1.5309806986   -0.1916787346
 C    1.7392875218    0.0480360655   -0.3825969804
 O    0.6508238652   -0.5012303518   -1.1205852622
 C    0.8075179240   -1.8360154080   -1.5146039465
 C    0.7527639418   -2.8373208963   -0.3721112599
 C   -0.4908234234   -2.6265708013    0.4703155853
 O   -0.4898262906   -2.5086380592    1.6680442808
 C    0.1567728016   -2.1554944364   -2.8287978769
 C    1.6684335902   -2.1076655667   -2.7238495671
 H    1.3959355896    2.0373287387   -1.1582260398
 H    0.5330704192    1.6828592658    0.3493243530
 H    2.2804603126    1.9922020248    0.3821790503
 H    2.6800503444   -0.1139023104   -0.9297989095
 H    1.8320151190   -0.4497239661    0.5932866283
 H    0.7184572684   -3.8531701537   -0.7870020944
 H    1.6282206085   -2.7755585373    0.2812855581
 H   -1.4385099067   -2.5863500809   -0.1128116143
 H   -0.3259209199   -3.1187598464   -2.9521276727
 H   -0.3318678861   -1.3306958551   -3.3335349410
 H    2.1657577083   -1.2543155014   -3.1704076143
 H    2.2261108629   -3.0366106026   -2.7734048422