17

 C    0.2164244376    1.5678807978    0.0486940458
 C    0.0621071185    0.0558566148    0.0207441470
 C    0.9472126900   -0.7789194771   -0.9653513387
 C    1.4164764818   -1.6839054204    0.2092486175
 C    2.6733496423   -1.1709397528    0.9244919032
 O    1.9009848070   -0.2247748798    1.7023114524
 C    0.6549154171   -0.7570648050    1.1998466897
 H    1.2502620249    1.8412229397    0.2774530614
 H   -0.0544014144    2.0080933715   -0.9169899631
 H   -0.4246178160    2.0190238143    0.8141285031
 H   -0.9922350481   -0.2174235399   -0.1052454462
 H    0.3853608494   -1.2966589796   -1.7458229985
 H    1.7570363607   -0.2178531123   -1.4426250531
 H    1.2689449737   -2.7592279344    0.1230382328
 H    3.1640516163   -1.9074630032    1.5748595739
 H    3.4330190153   -0.6805592655    0.3022913487
 H   -0.0072775162   -1.0785411982    2.0094613339