16

 C   -0.0244199618    1.4751389093    0.6208497635
 C   -0.1346925761    0.0866857443    0.0824679190
 N   -1.1959976439   -0.4251593484   -0.3617475059
 C   -1.1478083388   -1.7917206265   -0.8619559466
 C   -0.0965876333   -2.6226540387   -0.1174324597
 O    0.0505195336   -3.9007719610   -0.6658410699
 C    1.2175814287   -1.8674695679   -0.1483218143
 O    2.2799916645   -2.3837365496   -0.3572845586
 O    1.1285448205   -0.5316247920    0.0993125149
 H    0.7044727353    2.0479196731    0.0389075449
 H   -0.9983014148    1.9602977308    0.5759838140
 H    0.3337977478    1.4531322987    1.6550173968
 H   -2.1328783679   -2.2511070766   -0.7500337918
 H   -0.9189545407   -1.7852757414   -1.9362820829
 H   -0.3991092623   -2.6763065119    0.9443692653
 H    1.0034495592   -4.0601744521   -0.7311621787