18

 O    0.1268132650    1.3292254071   -0.2047299972
 C   -0.0369358046   -0.0227216932    0.2084583385
 C   -1.4588344665   -0.4833173058    0.1407309463
 C   -2.6309557110   -0.0562900363    1.0258506606
 C   -3.3899856467   -1.2730915130    0.4321774042
 C   -3.5896006699   -0.8975202830   -1.0629332328
 C   -2.0712868704   -1.0084393173   -1.1806161838
 C   -1.9859724679   -1.8961897227    0.0383349631
 H   -0.2814465342    1.4098485722   -1.0732122228
 H    0.5996601689   -0.7037205097   -0.3819662716
 H    0.3285218824   -0.0558943104    1.2411738045
 H   -2.3894032254   -0.2017711683    2.0832261785
 H   -3.0737772897    0.9361307074    0.8834591867
 H   -4.1787817119   -1.7698395242    0.9929511504
 H   -4.0880115753   -1.6963898975   -1.6193606764
 H   -4.0743802615    0.0613830844   -1.2820352241
 H   -1.4692918550   -1.0715564878   -2.0796972398
 H   -1.5162025662   -2.8553395720    0.2028840256