10

 O   -0.0952485339    0.2354613889    0.7672481955
 C    0.2615787474    0.8789009728   -0.1790827413
 C    1.3842963026    1.8993380828   -0.0754091134
 C    1.5385532532    2.6314868160    1.2123274468
 O    2.4121620409    1.5795516555    0.8635930121
 C    1.8091116109    2.5128923156   -1.3159047372
 N    2.0979710159    2.9789465370   -2.3330796315
 H   -0.2015443162    0.7907302782   -1.1819862526
 H    1.9610493965    3.6337195988    1.1901771027
 H    0.8208391326    2.4032486445    1.9972709689