13

 N   -0.0460851803    1.3185091843    0.0100361289
 C    1.2524915462    1.8342637117    0.0003623193
 C    2.1632344667    0.8029631911   -0.0144931901
 C    1.4069325725   -0.4139203911   -0.0139476734
 C    0.0850909298   -0.0324807724    0.0011371573
 O   -0.7908748886   -1.0499495981    0.0039989456
 C    0.0260700981   -2.1793470235   -0.0102057185
 C    1.3466571762   -1.8548827811   -0.0214580302
 H   -0.8961675786    1.8522855088    0.0212628468
 H    1.4035380040    2.9014008976    0.0049635457
 H    3.2352471682    0.9226135014   -0.0243437338
 H   -0.5075968196   -3.1142390005   -0.0101572923
 H    2.1595978953   -2.5644164682   -0.0334375352