18

 C    0.0622951234    1.5815944944   -0.0318997186
 C   -0.0098843817    0.0480145349    0.0176065308
 O   -1.3631869107   -0.3811346525    0.0075126485
 C    0.7249873394   -0.6114023270   -1.1869832417
 N    1.9877409951   -1.1002429202   -0.6059909864
 C    1.8788008885   -1.1449816760    0.7491959473
 C    0.7682873458   -0.5129055413    1.2055940719
 C    0.3025588364   -0.4176322487    2.5542656327
 O   -0.7876839501    0.0546524067    2.8630598955
 H    1.0980876466    1.9278984868   -0.1148174540
 H   -0.5040377325    1.9498124686   -0.8933007137
 H   -0.3712976014    2.0040774072    0.8782622895
 H   -1.7012738461   -0.1712433230    0.8911365891
 H    0.1151867686   -1.4408525695   -1.5624898668
 H    0.9188481994    0.0896935569   -2.0025121545
 H    2.5573606931   -1.7664032337   -1.1021117156
 H    2.6477400018   -1.6372995602    1.3342279409
 H    0.9798195944   -0.8253228834    3.3365889751