21

 C    0.3187137956    1.3675107436   -0.2890586977
 C    0.0231006097   -0.0961737887    0.0129342012
 C   -1.4762003333   -0.3691091374    0.0472839447
 O    0.6626320380   -0.9618340135   -0.9773126003
 C    1.4654714135   -1.6121627900    0.0392394477
 C    2.9115478746   -1.1936163039    0.0533850588
 C    3.1684198539   -0.3450395378    1.0492665570
 C    1.9522676417   -0.0356300636    1.8955021015
 C    0.8150605611   -0.7846708826    1.1730880145
 H    1.3933661000    1.5564816129   -0.3377387260
 H   -0.1109784013    1.6293901495   -1.2614124782
 H   -0.1248384667    2.0266438409    0.4651670352
 H   -1.9347292333   -0.0977196972   -0.9090876974
 H   -1.6730572395   -1.4294728916    0.2295310462
 H   -1.9599482568    0.2147135171    0.8386032458
 H    1.3199420061   -2.6985804008    0.0109207374
 H    3.6312175151   -1.5497640336   -0.6749695045
 H    4.1392233759    0.0934355444    1.2580398091
 H    2.0805452895   -0.3975206794    2.9239697616
 H    1.7729181885    1.0433234502    1.9775360986
 H    0.1640172778   -1.3269436586    1.8594123248