23

 C   -0.0461516463    1.4329814667   -0.0747338395
 O   -0.0456808631    0.0444150299    0.1541614669
 C   -1.3124397504   -0.5919151653    0.0053783152
 C   -1.7081124368   -0.7399901551   -1.4662449772
 C   -1.2073462235   -1.9485713020    0.7018415486
 C   -0.8707431985   -1.8329951363    2.1867879375
 C   -0.7368497313   -3.1743817078    2.8926242388
 C   -0.3662616361   -3.1215668465    4.3658893800
 O   -0.9132394508   -4.2252340102    2.3185110589
 H    0.9524640595    1.8010619975    0.1752048887
 H   -0.2570374603    1.6925987432   -1.1222522929
 H   -0.7824152496    1.9502752059    0.5611407684
 H   -2.0755415571    0.0191350266    0.5211745883
 H   -1.7945977117    0.2300905623   -1.9637325049
 H   -0.9609701584   -1.3351435211   -2.0007235252
 H   -2.6765534328   -1.2427343971   -1.5517717983
 H   -2.1491042915   -2.4919022942    0.5754090419
 H   -0.4390908598   -2.5464447055    0.1997786271
 H    0.0607644945   -1.2696158376    2.3201335489
 H   -1.6354423688   -1.2487053535    2.7202399500
 H   -1.0940515160   -2.5230189183    4.9250958095
 H   -0.3278186618   -4.1316626634    4.7753887695
 H    0.6077871907   -2.6359416682    4.4941951497