20

 C   -0.8191937311    1.1609211535    0.1010573778
 C    0.0821139119   -0.0625281134   -0.0152230384
 C    0.9368583360   -0.3410544345   -1.3114304722
 C    1.0949265696    0.8259086175   -2.2838349301
 C    2.1652500375   -0.5808428744   -0.4019711667
 C    3.1163932739   -1.7285915609   -0.4265889364
 N    3.5883434897   -0.3635842887   -0.6687569879
 C    1.3972603473   -0.0647347464    0.7953355753
 O    1.6846183445    0.2533048321    1.9133663763
 H   -0.2889083704    2.0835439783   -0.1502089629
 H   -1.6905978441    1.0793109964   -0.5562630267
 H   -1.1778324053    1.2576744130    1.1299988069
 H   -0.4852642322   -0.9636671997    0.2498827778
 H    0.6078396984   -1.2320860690   -1.8538714696
 H    1.4679766318    1.7257640522   -1.7841992282
 H    1.8043621395    0.5743478955   -3.0804037206
 H    0.1430602911    1.0750102434   -2.7629409821
 H    3.4467593516   -2.1653337518    0.5118265782
 H    3.0351708470   -2.4219101255   -1.2607846432
 H    3.7224369033   -0.2066308377   -1.6661420271