17

 C    0.0087592308   -1.1853187104   -0.0245642578
 C    0.0076591491    0.0176627876    0.0032886502
 C   -0.0006161090    1.4477645008    0.0375823666
 C    0.3829807834    2.2367784454   -1.2174926839
 C    1.2779038290    2.2851157527   -0.0164204809
 O    1.1750989728    3.3562882470    0.8805146278
 C   -0.0282119637    3.2801969942    1.6099145757
 C   -1.3282227793    3.5580459342    0.9022510754
 C   -0.8553345523    2.1302720765    1.0972994818
 H    0.0125907534   -2.2465621899   -0.0504597955
 H    0.7276781462    1.6412232975   -2.0555680991
 H   -0.1953325294    3.1102624790   -1.4906320417
 H    2.2697061672    1.8479756440   -0.0502882403
 H    0.1022242090    3.5312718928    2.6567511553
 H   -2.1606429201    3.8754449704    1.5221209488
 H   -1.3106384539    4.0141001219   -0.0798561670
 H   -1.4069720734    1.4742384661    1.7575933246