18

 C   -0.2434969794    1.4362943826    0.1452082346
 C    0.0591586468   -0.0314537217    0.0242261412
 O    1.1354070430   -0.5291937068   -0.1532741939
 O   -1.1077495608   -0.7551846048    0.1482187339
 C   -1.0282108682   -2.1216114119    0.0567880664
 N   -2.0817751400   -2.7916159536    0.1750525461
 C   -1.9857831425   -4.2414737239    0.0960372365
 C   -2.7340684577   -4.8402351500    1.2915115978
 O   -4.0783155865   -4.4145135184    1.3213936752
 H    0.6803930758    2.0061054112    0.0582570991
 H   -0.9467474994    1.7353138585   -0.6373678596
 H   -0.7245983153    1.6387708045    1.1062610381
 H   -0.0179405104   -2.4953175799   -0.1194499964
 H   -2.4921835727   -4.5630764780   -0.8222202404
 H   -0.9470064480   -4.6070113228    0.0658721803
 H   -2.7393211535   -5.9328122683    1.2158052013
 H   -2.2013408142   -4.5715432787    2.2191483151
 H   -4.0532002469   -3.4601527179    1.1748052646