16

 C    0.1818347290    1.3703505171    0.0644300892
 O    0.2000513633   -0.0633381878    0.0105478427
 C    0.4142977352   -0.5941482024   -1.2032076258
 O    0.5732522880    0.0824390617   -2.2052308997
 C    0.4626146588   -2.0654570659   -1.1722458917
 C   -0.0975887160   -2.8091779663   -2.3927443983
 C    1.3770902039   -2.7331732420   -2.2205110800
 O    2.1872437520   -1.9832308101   -3.0478647125
 H    1.1405200103    1.7797333369   -0.2630452484
 H   -0.6087651514    1.7696072398   -0.5753218261
 H   -0.0057015720    1.6230327484    1.1077609379
 H    0.3646612312   -2.5218324407   -0.1959977613
 H   -0.6143226904   -3.7425167145   -2.1995948836
 H   -0.5369581538   -2.1813778323   -3.1605808423
 H    1.8953186109   -3.6216353203   -1.8743140102
 H    1.7664130109   -1.1126481516   -3.1493152598