17

 C   -0.1051552964   -1.2398400632   -0.2597931099
 C   -0.0358540109   -0.0512212588   -0.1004069383
 C    0.0238714880    1.3949496991    0.0866870290
 C   -0.6940879350    1.8647221764    1.3783865553
 O    0.1046185199    1.7035929797    2.5285991537
 C    1.2033188544    2.5896020915    2.5462892187
 C    2.0434199595    2.5044216534    1.2911667066
 O    2.4101741788    1.1921105468    0.8765139037
 C    1.4713644074    1.9040543338    0.0749739833
 H   -0.1538701349   -2.2919594195   -0.3940810803
 H   -0.4936804841    1.8722430617   -0.7568973779
 H   -0.9749467219    2.9242514827    1.2548471341
 H   -1.6024693023    1.2809911252    1.5406474532
 H    0.8645179944    3.6338611585    2.6700477107
 H    1.8024035575    2.3212757925    3.4221851433
 H    2.8265698192    3.2587619673    1.2003500046
 H    1.8554794263    2.2003810529   -0.9003011700