17

 O    0.0127855366    1.3707276548    0.0492139370
 C    0.0286368890   -0.0067804716    0.0344847788
 C    0.6617243386   -0.9818823324    1.1274362203
 C   -0.0378049483   -1.8566573352    0.0880566861
 O   -0.3514131355   -3.1625466376   -0.2817151002
 C   -1.1081013171   -2.8680531682   -1.5040717770
 C   -1.0645536619   -1.3111027001   -1.5898868812
 C   -1.2360534429   -0.8800770158   -0.1127421801
 C    0.3776468784   -0.9816398868   -1.1321596112
 H    0.9199099581    1.6898434600   -0.0087711846
 H    1.7541675140   -1.0334122634    1.1729618399
 H    0.2221068549   -0.9392667182    2.1277870770
 H   -0.6159278013   -3.3591994332   -2.3505170322
 H   -2.1232357811   -3.2650293865   -1.3950418285
 H   -1.5724737745   -0.8509248695   -2.4380587591
 H   -2.1286142447   -0.8615938573    0.5125526417
 H    1.3214245376   -1.0829488591   -1.6697069966