19

 C   -0.0398238199    1.5569140046   -0.0340823906
 C   -0.0039773618    0.0615011786    0.0223866310
 C   -0.1328934888   -1.0340992377   -0.9880070704
 O    1.0168116936   -1.7567513312   -0.5441801202
 C    1.0883369964   -0.8668846630    0.6211237198
 C    0.4545117811   -1.5964790743    1.7980578213
 C   -1.0076074365   -1.8475794269    1.3199894798
 O   -1.9862108382   -1.4806856701    2.2859477999
 C   -1.1616484635   -0.9173182335    0.1236972156
 H    0.8776573527    1.9663560538   -0.4716441917
 H   -0.8816144967    1.9021829677   -0.6429262611
 H   -0.1602404691    1.9914344014    0.9652499715
 H   -0.3637699733   -1.0466102033   -2.0474145873
 H    2.0980990059   -0.4775614827    0.7654978188
 H    0.9933593472   -2.5152411743    2.0473874047
 H    0.4263978259   -0.9473391755    2.6811802233
 H   -1.1458257698   -2.8965916932    1.0240697048
 H   -1.9346008651   -2.1109832623    3.0114499294
 H   -2.1590339800   -0.5948025182   -0.1539534486