16

 O   -0.0143713482    1.2857569985   -0.1095845268
 C   -0.0238901051   -0.1099570229   -0.0353653248
 C   -0.4695659406   -0.6914929906    1.2866239781
 C   -1.4029468191   -0.6705267332    0.0619723226
 C   -1.4199188457   -2.2206858219    0.0327874221
 C   -0.4899224053   -2.2418764855    1.2741217522
 N    0.4893410639   -2.9722158584    0.4616206407
 C   -0.2554491271   -2.9373699687   -0.7108530898
 O   -0.0205943336   -3.3153253499   -1.8250920276
 H    0.7897217598    1.6006974238    0.3164389999
 H    0.7380313822   -0.6062110929   -0.6366078627
 H   -0.5045429834   -0.0722348653    2.1746124228
 H   -2.2612820028   -0.0402561542   -0.1284261312
 H   -2.3969355166   -2.6982846210    0.0336185540
 H   -0.7757843832   -2.7273807545    2.2072024328
 H    1.4817682650   -3.1216658032    0.5808341577