19

 C   -0.0214058554    1.5296935809    0.0362829989
 C    0.0522019526    0.0118363106    0.0911254520
 C   -1.1815195319   -0.6600165444   -0.4971864433
 C    1.3553620512   -0.7524367917   -0.2586267729
 C    2.5445360889   -0.0757441972    0.3260804597
 O    3.6400353377    0.1888559114   -0.0881757610
 C    1.9377604471   -0.0276490461    1.7574090801
 C    0.7051176744   -0.7406893589    1.1874660318
 O    0.0156065378   -1.7276919826    1.8501604932
 H    0.8705135902    2.0179843905    0.4339244777
 H   -0.1434605485    1.8619152808   -1.0001740125
 H   -0.8859876229    1.8911797647    0.6045520932
 H   -1.3192420082   -0.3543320029   -1.5393763294
 H   -1.1123802170   -1.7484507252   -0.4570179158
 H   -2.0754340137   -0.3635584061    0.0615452006
 H    1.3506539391   -1.4813302732   -1.0607105410
 H    2.5229783805   -0.6848779003    2.4112510877
 H    1.8087057720    0.9384807276    2.2525478879
 H    0.6490091162   -2.3454277178    2.2330978730