13

 O    0.1217793812    1.3390337694    0.1261917251
 C    0.0810367286   -0.0049827212    0.0286975225
 N    0.1094716824   -0.6872199536   -1.1034160446
 N    0.0475013562   -1.9525041875   -0.6799297160
 N   -0.0182764058   -2.1419986318    0.6342339391
 C    0.0015521391   -0.9023649219    1.1161726214
 N   -0.0467848840   -0.5298753003    2.4554554977
 C   -0.1240943040   -1.3453075633    3.5610209071
 O   -0.1641656160   -2.5490360720    3.5551321277
 H    0.1741781625    1.7044859421   -0.7652728064
 H    0.0513771524   -2.7265944165   -1.3211591171
 H   -0.0204891346    0.4653492371    2.6192626220
 H   -0.1454156283   -0.7329551205    4.4846674514