17

 C    0.0827482961    1.5271916337   -0.0109131726
 C   -0.0796055931    0.0499435890    0.1329029239
 C   -1.3806703007   -0.7831925333    0.0495683300
 C   -0.7118090462   -1.7792030203    1.0334078043
 C   -1.3653112655   -2.4630338215    2.1689040019
 N   -0.7512344516   -3.2328920130    1.0642838230
 C    0.5494317089   -0.9409623096    1.0309550982
 O    0.9643491331   -0.8101072931   -0.3413819460
 H    1.1013566777    1.8251777705    0.2509031578
 H   -0.1085493651    1.8402392739   -1.0436804743
 H   -0.6193512099    2.0615420852    0.6371694947
 H   -2.2606369831   -0.2883068074    0.4696782360
 H   -1.6053042156   -1.1604431792   -0.9519523507
 H   -0.8561558900   -2.5586526996    3.1246968277
 H   -2.4493296601   -2.4085093528    2.2380311707
 H   -1.4699607626   -3.5775942216    0.4324272021
 H    1.3123909979   -0.8388784410    1.7945820134