15

 C   -0.3145181063    1.3918913428   -0.3817622862
 O   -0.2390110761    0.1140798275   -1.0339387996
 C    0.9194794906   -0.5409814156   -0.8872787270
 O    1.8597588928   -0.1509474563   -0.2439913012
 C    0.8909977022   -1.8808533810   -1.5988411366
 C   -0.1932224539   -2.8818849060   -1.1372756641
 C   -0.7173442305   -2.7063214688   -2.5632553740
 O   -1.6041971254   -3.1132933256   -3.2355039520
 O    0.2743519031   -1.8206957509   -2.9226220269
 H   -0.1822015134    1.2789504389    0.6968835457
 H    0.4595079502    2.0600770238   -0.7659917541
 H   -1.3058250780    1.7811391666   -0.6104013232
 H    1.9079937160   -2.2670982940   -1.6584719080
 H    0.1565282147   -3.8876460689   -0.9024934015
 H   -0.8751386158   -2.5296025225   -0.3631212414