12

 N   -0.1418643805    1.3218495608   -0.0014766472
 C    0.0448691869   -0.0236040760   -0.0049406898
 O    1.1282702449   -0.5776199118   -0.0137596864
 C   -1.2018972926   -0.8165802284    0.0051049964
 C   -1.3894626547   -2.1369479586    0.0042312681
 O   -2.7350666668   -2.4010502746    0.0155894558
 C   -3.3962546798   -1.1949486945    0.0240395742
 O   -4.5712622764   -1.0429642482    0.0350883414
 O   -2.4493751522   -0.2044921877    0.0177417016
 H    0.6696243373    1.9168610107   -0.0038657605
 H   -1.0605294019    1.7309595569    0.0108039379
 H   -0.7066665541   -2.9672435388   -0.0034257917