18

 C    0.0029880422    1.5125191524   -0.0292059627
 C    0.0197345067    0.0083077503   -0.0384369183
 C    0.5763184919   -0.9526513826   -1.1181057198
 C    0.0271565668   -1.8972068337   -0.0272365817
 C    0.6049816270   -0.9458980606    1.0724771447
 C   -0.3968020895   -0.9420328094    2.2190188483
 O   -1.6384352357   -0.9410138907    1.4905500042
 C   -1.1957431231   -0.9554571156    0.1454163899
 H    1.0184100044    1.9241282734   -0.0270267429
 H   -0.5147056462    1.9049210599   -0.9114331355
 H   -0.5177181892    1.8909412734    0.8570944108
 H    0.0622548036   -0.9594569718   -2.0847164767
 H    1.6609886458   -0.9500013408   -1.2562087122
 H    0.0277841200   -2.9872863706   -0.0106515974
 H    1.6735531797   -0.9406771693    1.2917840968
 H   -0.3357452471   -1.8323221109    2.8575948727
 H   -0.3324385455   -0.0497132005    2.8546893287
 H   -2.0409226617   -0.9625562230   -0.5428052389