20

 C   -0.2252200715    1.4960661847    0.1357032703
 C   -0.0917691719   -0.0274931504    0.0800545824
 C    0.8442632224   -0.5789676474    1.1622445378
 O    0.3553696945   -0.2339877951    2.4634507077
 C    0.2627348746   -1.3906423759    3.3023735174
 C   -1.1317389760   -1.4762301595    3.9229116176
 C    0.6255883276   -2.5374965453    2.3947531396
 C    0.9549646984   -2.0804193960    1.1934029110
 H    0.7434363365    1.9833625804   -0.0235043949
 H   -0.9137026886    1.8615724955   -0.6321300255
 H   -0.6006912060    1.8096372136    1.1131868278
 H   -1.0737265204   -0.4999979994    0.2016755410
 H    0.2944129198   -0.3384892175   -0.8995789910
 H    1.8392396348   -0.1172731082    1.0242782673
 H    1.0010341859   -1.2963494821    4.1181880897
 H   -1.8906968567   -1.6056748231    3.1458914645
 H   -1.1929278194   -2.3200761308    4.6185098031
 H   -1.3525635653   -0.5591621856    4.4764211220
 H    0.6134905332   -3.5704168752    2.7200829692
 H    1.2657957181   -2.6636433530    0.3354288129