14

 N   -0.0570397916    1.3465548622   -0.0559923396
 C    0.0726397193   -0.0085953612    0.0427322564
 O    1.1547370241   -0.5555946106    0.1324461729
 C   -1.2486493379   -0.7759542657    0.0278212477
 C   -1.0196966929   -2.2945557186   -0.0340069107
 C   -2.2691394203   -3.0439066969   -0.0028067866
 C   -3.3134120391   -3.6387676584    0.0242450216
 H    0.7736228906    1.9113016956    0.0106345016
 H   -0.9523804161    1.8021928450   -0.0695778123
 H   -1.8172012038   -0.5197352387    0.9300151077
 H   -1.8584171567   -0.4464742858   -0.8211043307
 H   -0.4555606392   -2.5382945753   -0.9409758308
 H   -0.3741518011   -2.5906852589    0.7992064962
 H   -4.2251928055   -4.1819585028    0.0480126467