19

 C    0.0131405506    1.5864616487   -0.1224121251
 C    0.0491113081    0.0761035495    0.1419015927
 C   -1.3336633739   -0.5600434095    0.0164021658
 C   -2.0423679568   -0.6718257299   -1.3635840429
 O   -2.3943263407    0.1563619475   -2.1597332433
 C   -2.2587120309   -2.1436046637   -1.2353739587
 C   -0.9074185532   -2.8252130287   -0.9514705198
 C   -1.5323808037   -2.0753047363    0.1579329210
 O   -1.8864762773   -2.5950122220    1.3806529502
 H    1.0166432278    2.0192914030   -0.0708227190
 H   -0.4058044069    1.7985862289   -1.1099530291
 H   -0.6109860770    2.0988433197    0.6178967851
 H    0.7433011272   -0.4024937027   -0.5596985775
 H    0.4424484620   -0.1210465354    1.1471546228
 H   -2.0425356362   -0.0571235225    0.6884472829
 H   -3.1010026482   -2.7200622580   -1.5979422519
 H   -1.0016089721   -3.9077468404   -0.8906371545
 H    0.0033728674   -2.4984720559   -1.4465159830
 H   -1.6704627859   -3.5323754122    1.4038984144