19

 C   -0.0434387309    1.5580000614    0.0460765488
 C    0.0696080954    0.0492262079    0.0434830899
 O   -1.0938377784   -0.5831438699   -0.4263963694
 C    1.3254765391   -0.7237214811   -0.2579543188
 C    2.5787788181   -0.0518104553    0.3042425507
 C    1.9415235854   -0.0625519767    1.7299138059
 C    0.6860772394   -0.7604875679    1.1690822941
 C   -0.0159308635   -1.7951789272    1.8457031211
 C   -0.5741506214   -2.6595892612    2.4704942080
 H    0.8401168976    2.0516791695    0.4548674165
 H   -0.1822067495    1.9268350647   -0.9779968524
 H   -0.9142374272    1.8623396329    0.6342134183
 H   -1.1631212703   -0.4021986788   -1.3703928723
 H    1.3011434957   -1.5120266213   -1.0015028844
 H    3.4592280998   -0.6948598765    0.2478682335
 H    2.8379583283    0.9229768358   -0.1206640780
 H    2.4825436470   -0.7127698454    2.4186001379
 H    1.7775589261    0.9017280662    2.2191916995
 H   -1.0833417908   -3.4205718669    3.0072082712