21

 C   -0.0338488549    1.4358952697    0.0070101247
 C   -0.0248488836   -0.0542149732   -0.0151371147
 C   -0.0411852000   -0.9203023526   -1.0395336704
 C   -0.0063552537   -2.2941983087   -0.3622240974
 C    1.0667646655   -2.0325501878    0.7434286880
 C    0.0144946362   -0.9745074673    1.2297938931
 C    0.0228584893   -0.3653324253    2.6130202654
 C   -1.0518436353   -2.0588353693    0.7885737147
 O   -2.3683397256   -1.7049409409    0.5122872013
 H    0.8603633733    1.8359377169    0.5019980572
 H   -0.0698866461    1.8470479993   -1.0059743240
 H   -0.8940863090    1.8282069981    0.5642886943
 H   -0.0629243680   -0.7208698340   -2.1025353447
 H   -0.0080766985   -3.1893360889   -0.9829606547
 H    1.2004618360   -2.8654321113    1.4426941238
 H    2.0317311391   -1.6481452459    0.4069194010
 H    0.8690893464    0.3164079951    2.7551623080
 H   -0.8968366467    0.2004781542    2.7994884237
 H    0.0917328290   -1.1425812502    3.3810123500
 H   -1.0969612041   -2.8927518119    1.4957354285
 H   -2.3262757894   -1.0084089860   -0.1579279779