16

 O   -0.1512785186    1.3627964771    0.1518706926
 N    0.0422398871   -0.0225304191    0.0371591467
 C   -1.0615288223   -0.6243431417   -0.0738235967
 C   -2.5272765226   -0.2584872895   -0.1543206662
 N   -2.7867556987   -1.6605718061   -0.5828642252
 C   -3.8872198756   -2.3455070206    0.0630066785
 C   -4.0144640724   -3.7251044529   -0.4206323990
 N   -4.1027421199   -4.8180173938   -0.7830937100
 C   -1.3989106310   -2.0875859356   -0.2391071297
 H    0.7521345113    1.6930859804    0.2070801439
 H   -2.9521532398    0.0046527539    0.8278475208
 H   -2.8175436220    0.5046864633   -0.8827188099
 H   -3.7975433587   -2.3805601888    1.1668338098
 H   -4.8181371113   -1.8129558134   -0.1640098538
 H   -0.8890093262   -2.6460696180   -1.0287889322
 H   -1.3274340592   -2.6539978950    0.7029079804