17

 N    0.7918688273    0.0453397218    1.4202225190
 C    0.0493704939   -0.2197752067    0.4373442285
 O   -0.8344706768   -1.2376940304    0.5231641193
 C   -1.5878243298   -1.5387101248   -0.6478518178
 C   -2.7382880315   -2.4593322998   -0.2612024407
 C   -2.5500450930   -3.4405513023    0.8483044589
 N   -3.4071922262   -2.2623367583    1.0420363357
 C   -3.5874933072   -2.7757056292   -1.3824169647
 C   -4.2505669684   -3.0242740682   -2.3536754499
 H    1.3870734529    0.8422468924    1.2046643716
 H    0.0225207875    0.3025115823   -0.5282503786
 H   -1.9899330283   -0.6174710655   -1.0896127241
 H   -0.9527174483   -2.0313631851   -1.3948858250
 H   -3.0765269555   -4.3883281212    0.8014182033
 H   -1.5789551297   -3.4581344021    1.3326406940
 H   -2.8779591997   -1.5624205391    1.5600975582
 H   -4.8555858772   -3.2528921438   -3.1960593778