20

 C   -0.0976007868    1.4328790291   -0.1228749721
 C   -0.0202585675   -0.0853485283   -0.0762456436
 O    0.9521074460   -0.7062593011   -0.4656970298
 N   -1.1008682613   -0.7001624771    0.5294728078
 C   -2.5568338273   -0.4616085627    0.1978864696
 C   -2.3929542829   -1.3689601001   -1.0534182642
 C   -1.6313442905   -2.0698296932    0.1244396637
 C   -0.7818315587   -3.3047468748    0.1083179206
 C   -2.8616248978   -1.7354377182    1.0250945021
 H    0.9074290798    1.8341388624   -0.2556630242
 H   -0.7111886007    1.7468286526   -0.9755809735
 H   -0.5499102646    1.8438290530    0.7833209161
 H   -3.0108601955    0.5253205678    0.2783970633
 H   -3.2914512721   -1.8668801915   -1.4285266004
 H   -1.7707324615   -0.9823750053   -1.8631207201
 H    0.0592789667   -3.1790693754   -0.5756696545
 H   -0.3827722158   -3.5066134476    1.1071617960
 H   -1.3802304985   -4.1668564431   -0.2043147285
 H   -2.6649909752   -1.6700059952    2.0959050824
 H   -3.7909316257   -2.2574676614    0.7913154092