17

 C   -0.0094789314    1.4907909140    0.0831893406
 C    1.3079389376    0.7640161555    0.0192275759
 C    2.0223934231    0.4322919540    1.3325021840
 N    1.0604911725   -0.4349410112    2.0080110196
 C    0.9524772691   -1.0964698769    3.1934197340
 N   -0.1500528644   -1.8159169054    3.2372742153
 C   -0.7878861100   -1.6054808841    2.0312248712
 C   -0.0505731902   -0.7509003912    1.2538336964
 C    0.0003710910   -0.0225402255   -0.0311399876
 H   -0.3283378082    1.9231075998    1.0264264773
 H   -0.2987971716    2.0574213996   -0.7954399375
 H    1.9217970263    0.8810860542   -0.8651591820
 H    2.9635485545   -0.0988302458    1.1506571972
 H    2.2426710379    1.3205709639    1.9342843949
 H    1.6923797801   -1.0237043719    3.9762673437
 H   -1.7308403825   -2.0789582752    1.8059841253
 H   -0.3486334938   -0.4924327935   -0.9418989383