14

 N   -0.1922760902    1.4193939383   -0.0895067107
 C   -0.1125549332    0.0244284285   -0.0765947465
 C   -1.1095503326   -0.8990782392    0.0250066995
 N   -2.4664976732   -0.6084712128    0.1412566248
 C   -3.4692843055   -1.5307868888    0.2430917340
 O   -3.3146793776   -2.7319345010    0.2460364532
 C   -0.4306322775   -2.1494341785   -0.0172002517
 N    0.8653052707   -1.9847104873   -0.1343087197
 O    1.0787104684   -0.6130201265   -0.1729565739
 H    0.3234427592    1.8358353815    0.6807813424
 H    0.1745967117    1.8123180620   -0.9519248153
 H   -2.7036131635    0.3735303016    0.1488490647
 H   -4.4580622130   -1.0416762778    0.3240768906
 H   -0.8577560636   -3.1374140600    0.0348350586