18

 N    0.2382022136    1.1105052369    0.3677826630
 C    0.0612847974   -0.0764162761    0.0054671855
 O    0.9256815595   -0.9660218435   -0.6157970882
 C   -0.1131454890   -1.9925833297   -0.6936345689
 C   -0.0618419410   -2.9712347611    0.4980251441
 C   -0.9789663278   -2.0091665965    1.2794956582
 C   -2.1040818343   -2.3854268527    2.1979567474
 C   -0.9140869630   -1.6170061720    2.7240544217
 C   -1.0884888725   -1.0532590590    0.0711519566
 H    1.1872492428    1.4259278091    0.1588001117
 H   -0.2388161088   -2.3553427329   -1.7125984911
 H   -0.5289737714   -3.9358679077    0.2773409257
 H    0.9416080402   -3.1392170093    0.8968133074
 H   -3.0475595204   -1.8595116667    2.0914867479
 H   -2.2042221712   -3.4307441579    2.4736154641
 H   -0.2068938894   -2.1416700390    3.3583887810
 H   -1.0419055463   -0.5676005506    2.9671143767
 H   -2.0715744784   -0.7306839416   -0.2661378828