19

 O   -0.0100246746    1.4253081826    0.0489040129
 C    0.0114773849    0.0112911519    0.0373819655
 C    0.7918312678   -0.5670829588    1.2255392308
 O    0.7888682775   -1.9828611665    1.2005835952
 C   -0.5263275183   -2.5124017169    1.2958661330
 C   -1.4061499756   -2.0485556646    0.1340284961
 C   -1.4453461868   -0.4995184531    0.0614858588
 C   -2.2162834630    0.0667789112    1.1677749734
 C   -2.8744669452    0.4931010439    2.0790369925
 H    0.8978777859    1.7401265866   -0.0104094922
 H    0.4693944567   -0.3715569532   -0.8887257230
 H    1.8422232423   -0.2578930878    1.1793415124
 H    0.3582099912   -0.1808317671    2.1612872611
 H   -0.4162625271   -3.6002936173    1.2910964238
 H   -0.9851712291   -2.2167899337    2.2524626525
 H   -0.9954241575   -2.4358259812   -0.8051356273
 H   -2.4200801683   -2.4443142481    0.2461614811
 H   -1.9223070785   -0.1918926371   -0.8768961137
 H   -3.4508835124    0.8920096391    2.8766085072