17

 C   -0.0105844003    1.4741919631   -0.1090995426
 C   -0.0024422323   -0.0232103219    0.0463989772
 C   -1.2492516773   -0.8203834684   -0.3093699828
 O   -1.0584367429   -2.1210672147    0.2517047631
 C   -0.2711275437   -1.9730852539    1.4294556447
 C    0.4436949488   -3.2332566756    1.6769769216
 N    1.0233523994   -4.2066123743    1.9002929116
 C    0.6379818742   -0.7760181653    1.1600195901
 N    1.2696863556   -0.7283783077   -0.1583791254
 H    0.9404706782    1.8943877484    0.2246377666
 H   -0.1500569346    1.7546998937   -1.1589926879
 H   -0.8204285468    1.9277901569    0.4721195014
 H   -2.1418165596   -0.3340234627    0.1136952340
 H   -1.4026075312   -0.9542727799   -1.3850992044
 H   -0.9010138919   -1.7610918682    2.3089744188
 H    1.1700828539   -0.3233595685    1.9897588501
 H    1.1325181104   -1.6088988310   -0.6534442761