14

 O   -0.1809562834    0.0856414341   -0.2447115099
 C   -0.0754507141    1.2403472999    0.0138488989
 O   -1.0346067074    2.0944964573    0.4990951945
 C   -0.0947737563    3.2202922626    0.5136478174
 C    1.0133637093    2.3097357953   -0.0281824919
 C    2.3894466869    2.1021607621    0.6344822932
 O    3.0803067469    2.4103863181   -0.5896600183
 C    1.8406386902    2.5849790002   -1.2992760689
 H   -0.4346949856    4.0173091699   -0.1517862570
 H    0.0423988737    3.5973038662    1.5298323437
 H    2.6287169417    2.8084775853    1.4391552236
 H    2.5832252954    1.0780236113    0.9742092672
 H    1.7113890020    1.8450307643   -2.0977693652
 H    1.7341328707    3.5954959234   -1.7129733774