19

 C   -0.9279565311    1.1846144077    0.0432926329
 C   -0.0446275783   -0.0509321195   -0.0419224652
 C    1.2512976199   -0.0010992166   -0.9060138600
 C    2.0276002863   -0.7112356612    0.2415929661
 O    3.1814283564   -0.0543201281    0.7566776029
 C    2.7807453899    0.9742551163    1.6401264834
 C    1.3315883058    0.6834632881    2.0568247789
 O    0.7182211061    1.2738497348    2.9074820368
 C    0.8349796980   -0.4672629797    1.1903814472
 H   -0.3516974516    2.0776915346    0.3048924898
 H   -1.4166149081    1.3714506320   -0.9190835500
 H   -1.7074953948    1.0652930325    0.8023332671
 H   -0.6524873543   -0.9145252653   -0.3288335943
 H    1.2238916644   -0.5105361918   -1.8714281135
 H    1.6158570573    1.0187237186   -1.0631904158
 H    2.3057738318   -1.7453388893    0.0326515262
 H    3.4427418506    0.9915248516    2.5122098216
 H    2.8217861230    1.9700419882    1.1694313239
 H    0.4540038487   -1.2729847631    1.8211260921