15

 O   -0.0833978737   -0.0696424293    0.1687990265
 C   -0.0146126123    1.1372147485    0.1370946456
 C    1.2179892348    1.8802679279    0.0667784915
 C    2.2318135836    2.5349596349    0.0112071642
 C    3.4745871976    3.2921899144   -0.0545014466
 C    4.2442532787    3.0799113203   -1.3993570981
 O    4.6965545971    4.3806745518   -1.7185253452
 C    3.6798711481    5.2278874489   -1.2521642103
 O    3.2644846577    4.7052443837   -0.0031810619
 H   -0.9227708729    1.7727728818    0.1605963069
 H    4.1028325268    3.0186708112    0.8017797763
 H    5.1052157937    2.4185288141   -1.2966049405
 H    3.5677109891    2.6873480216   -2.1704811403
 H    4.0850563535    6.2316417920   -1.1042361675
 H    2.8313955982    5.2515071980   -1.9588432906