17

 C   -0.1965252603    1.5238719055    0.1623994779
 C    0.1364099729    0.0431537923   -0.0173288471
 N    0.7673259713   -0.5314178068    1.1589427163
 C    0.2974568983   -1.4448440371    2.0302450039
 N    1.1799775056   -1.6800694774    2.9819851525
 C    2.2164160044   -0.8560501487    2.6432333933
 C    3.4794348442   -0.7656758218    3.4319384134
 N    2.0085914316   -0.1406205957    1.5446280463
 H    0.7111802098    2.0895133207    0.3837844715
 H   -0.6426974303    1.9211570736   -0.7540041189
 H   -0.9041878151    1.6687992748    0.9838828348
 H   -0.7665581713   -0.5431644234   -0.2115419687
 H    0.8138450580   -0.0971947869   -0.8652266074
 H   -0.6749749881   -1.9041073271    1.9274790959
 H    3.9764977942   -1.7396594528    3.4800826925
 H    4.1582361110   -0.0435189889    2.9752308878
 H    3.2715317039   -0.4572411404    4.4613130060