15

 C   -0.0608125191    1.4455985159   -0.0325063150
 N   -0.0306834639   -0.0012743831    0.1095112958
 C   -1.0882694808   -0.6660787322    0.1039919245
 C   -1.2182559758   -2.1702940182    0.2097089252
 O   -2.6089373111   -2.3730408956    0.4664760536
 C   -3.2662689738   -1.2617471586   -0.0685083241
 O   -2.3790876244   -0.1614180769    0.0084822038
 C   -3.6620391359   -1.4879635126   -1.4880924781
 N   -3.9828754370   -1.6770366051   -2.5810272966
 H    0.6127148671    1.7314112838   -0.8467462027
 H   -1.0557581256    1.8581455984   -0.2306803079
 H    0.3351361028    1.8988676452    0.8827468099
 H   -0.9090097745   -2.6581671147   -0.7239545097
 H   -0.6446702083   -2.5802979939    1.0411392391
 H   -4.1580344297   -1.0505341924    0.5276466323