13

 C    0.0047181101    1.5233853311    0.1176664138
 O    1.3015420368    2.0144004367   -0.3424008049
 C    2.2727457410    1.1850009483   -0.7455832823
 N    2.2740843666   -0.0951520174   -0.8087215272
 C    1.0800173075   -0.6310122080   -0.3891280698
 C   -0.0228291629    0.0325578040    0.0550661895
 C   -0.9320744690   -1.0091899504    0.3435892052
 N   -0.4143745149   -2.1938201534    0.0924319258
 O    0.8798160998   -1.9512440567   -0.3789247879
 H   -0.1275599390    1.9179073291    1.1322708943
 H   -0.7460942775    1.9989119716   -0.5247705898
 H    3.1491815131    1.7531311075   -1.0449901678
 H   -1.9432670616   -0.9598533225    0.7235288111