17

 C    0.0148741681    1.3879440796   -0.0826963183
 N    0.0234694219   -0.0487288363    0.0191745634
 N    0.0926561424   -0.8218059059   -1.1170528447
 C    0.0891737217   -2.0619272644   -0.6614884804
 O    0.1349630973   -3.1289208528   -1.4912266378
 C    0.0458029917   -2.1369099871    0.7497284065
 N    0.0395006806   -3.2364182518    1.6518571312
 C    0.0142838142   -0.8052330965    1.1405192665
 N   -0.1018683006   -0.2775812982    2.4245933739
 H    1.0279625628    1.8089276002   -0.1245122886
 H   -0.5144788676    1.6673494586   -0.9952562983
 H   -0.5102154036    1.8038646756    0.7812117368
 H    0.1669203140   -2.7799850346   -2.3909343349
 H    0.8284024265   -3.8538310222    1.4841436443
 H   -0.7949726871   -3.8050017966    1.5390798136
 H   -0.0684829786   -1.0432805650    3.0906322552
 H    0.6172669861    0.3992558473    2.6533362416