17

 C    0.0888870803    1.4249218610    0.2200235199
 N    0.0658187312   -0.0247982492    0.1231607039
 C    0.0385110248   -0.7572869401   -1.0265754806
 N   -0.0517975191   -2.0486725922   -0.8013085829
 C   -0.0924342484   -2.1651303034    0.5647187260
 C   -0.0300586787   -0.9315874720    1.1679566851
 C    0.0186333625   -0.5232940723    2.6076425534
 C    1.4563959740   -0.1838592129    2.9824187288
 O    1.8729737833    0.9362872284    3.1349517974
 H    0.8144366448    1.7488440262    0.9688231068
 H    0.3708945773    1.8363249386   -0.7507829420
 H   -0.8968888449    1.8175590503    0.4925675684
 H    0.0863883274   -0.2843179560   -1.9970380490
 H   -0.1689270838   -3.1278552372    1.0490447943
 H   -0.6148884526    0.3433163235    2.8214202352
 H   -0.3198972352   -1.3665688947    3.2187237192
 H    2.1291040369   -1.0666575580    3.0556105761