16

 O    0.0872229001    0.0106821209   -0.1628169587
 C    0.0235441544    1.1808603560    0.0581991360
 C   -1.1011797610    2.2395041900    0.0472763706
 C   -1.3733445312    2.8237873454    1.4401095325
 C   -0.0667367713    3.1507353064    2.1433889304
 O    0.7810155370    2.0418680409    2.4673669859
 C    1.1876722473    2.9247362243    1.4095796826
 C    1.0146643344    2.3688359689    0.0047364604
 N   -0.1060686318    3.1460795005   -0.6492636798
 H   -2.0175460557    2.0160869801   -0.5032441145
 H   -1.9532596796    3.7458939177    1.3237856853
 H   -1.9659149837    2.1262306110    2.0427328599
 H   -0.1037028456    3.9203489141    2.9124557190
 H    2.0716282818    3.5207323326    1.6236226426
 H    1.9414709184    2.2757591038   -0.5627210837
 H   -0.1093816035    2.9188758474   -1.6424077484