15

 O    0.0313572819    0.0173151586   -0.5603851646
 C   -0.0073964627    1.1715731885   -0.2052373833
 C    1.2322008284    1.9732905209    0.0166739383
 C    1.2801187900    3.4706051657   -0.1212332950
 O    0.0593970848    4.0756620259    0.3217277749
 C    0.3461697459    3.6826179602    1.6786968855
 C   -0.7624278290    3.0055282183    2.4495459554
 O   -1.8497289543    2.7329676300    2.0171426386
 C    1.5643529463    2.8675091439    1.2249317007
 H   -0.9614417980    1.7061779007   -0.0536292805
 H    2.1272636333    1.4696087907   -0.3398973061
 H    1.8880956461    4.0163668221   -0.8321982608
 H    0.6741212677    4.5562370355    2.2637391616
 H   -0.4717582212    2.7779688967    3.5018351525
 H    2.4893653008    2.7474907523    1.7703476828