14

 C   -0.1172505954    1.4466699865   -0.0810857058
 C    1.2727949452    0.9158584772    0.0930478582
 C    0.1030117618   -0.0494681732    0.0447296604
 C   -0.3149890470   -0.7423021626    1.2687475898
 N   -0.7942146911   -1.9837729949    1.2950620690
 N   -1.0172270889   -2.1427364969    2.5956617597
 N   -0.7098489978   -1.0974876554    3.3448851680
 N   -0.2598939890   -0.1934459758    2.5156457223
 H   -0.5756321451    1.9425817435    0.7664584194
 H   -0.4155688148    1.8229507738   -1.0529219692
 H    1.9451664181    0.9214961413   -0.7572071102
 H    1.7469755788    1.0556926467    1.0573970835
 H   -0.0136059516   -0.6482926918   -0.8503562926
 H   -1.3921357930   -2.9936150184    2.9869662175