12

 N   -0.5892751267   -0.4889362365   -1.2177983976
 C   -0.2042385643    0.1987116564   -0.3735720213
 C    0.2986315908    1.0745513165    0.6831395727
 C    1.5495383344    1.8017940973    0.2860879824
 C    2.2597491515    1.7681058161   -0.8663974913
 O    3.3230209053    2.6156496094   -0.7267747503
 C    3.1900985329    3.1185692409    0.5189329932
 N    2.1647686672    2.6800573025    1.1719225131
 H   -0.4835875683    1.7948773363    0.9515843431
 H    0.4833103873    0.4767240910    1.5838730376
 H    2.1656404980    1.2478628284   -1.8032619199
 H    3.9389757519    3.8241458716    0.8424026684