17

 C   -0.4554770778    1.1889075905    0.0516335789
 N    0.1192196684   -0.1489219951    0.1152796491
 C    0.7344696985   -0.5700998755    1.2607871917
 O    0.7925552465    0.0542811432    2.2995144986
 C    0.2142632403   -0.8910795623   -1.1012941746
 C   -0.0960591438   -2.3745756929   -1.1141134028
 C   -1.0426705680   -1.4012825966   -1.7664962540
 O   -2.2500484707   -1.0989674556   -1.1401544810
 H    0.1156942526    1.8256802380   -0.6359825325
 H   -1.4912812700    1.1337572704   -0.2902190825
 H   -0.4103379782    1.6157596694    1.0533952353
 H    1.1796915084   -1.5746072122    1.1380499520
 H    0.9933103978   -0.5531332715   -1.7851977967
 H    0.5142061298   -3.0254434500   -1.7295345720
 H   -0.4359218372   -2.8066935289   -0.1800219122
 H   -1.0633097203   -1.3611967723   -2.8550910445
 H   -2.8151855761   -1.8773158785   -1.1757037928