17

 O   -0.0125983380   -0.0966507470    0.0847862269
 C    0.0515163147    1.1023279971    0.0220946409
 C    1.3366701058    1.9130194556    0.0334087054
 C    1.4056629268    2.9051077772   -1.1637909174
 C    1.9872811389    4.2211653358   -0.5971300221
 C    1.7605521287    4.0862583428    0.8999632121
 C    1.4156719589    2.8324681078    1.2322918331
 C    1.9599465795    5.1675384478    1.7907446091
 C    2.1365036230    6.1189796066    2.5088833057
 H   -0.8687840455    1.7301771188   -0.0482499156
 H    2.1653962085    1.1937574187    0.0352848430
 H    1.9867868826    2.5012721215   -1.9949732023
 H    0.3911002551    3.0873788338   -1.5371258181
 H    3.0601333619    4.3237913002   -0.8028740895
 H    1.5034429168    5.1107451097   -1.0114417794
 H    1.2493347382    2.4871236281    2.2456218261
 H    2.2902071139    6.9467153154    3.1560877021