20

 C   -0.1381744296    1.5420017816   -0.0341769896
 C   -0.1832955500    0.0127214185    0.0558444200
 C    0.7158123093   -0.5452791899    1.1536963809
 C    0.7827021525   -2.0524739278    1.3836300564
 C    1.4868645800   -2.7645261546    0.3006881436
 N    2.3031602543   -2.0929806983    1.3297104829
 C    2.2824925021   -0.6111164027    0.9812138618
 C    2.8719695711   -0.2500070311   -0.2933255696
 C    3.3537848457    0.0448122457   -1.3559222292
 H    0.8740187465    1.8918969112   -0.2588936684
 H   -0.8013303542    1.9104882697   -0.8226296697
 H   -0.4526478942    2.0037483193    0.9087104230
 H   -1.2113802816   -0.3174794081    0.2550853520
 H    0.0975498852   -0.4191973759   -0.9108638351
 H    0.4975677359   -0.0309471265    2.0949975611
 H    0.2387124115   -2.5811731358    2.1602701894
 H    1.5431385877   -3.8461150692    0.3746556092
 H    1.4961302862   -2.3788135966   -0.7146422880
 H    2.7946390247   -0.0760285091    1.7844767056
 H    3.7929668870    0.3081102395   -2.2864556866