23

 O    0.4651445998    0.8172641190   -0.8076484395
 C    0.0938429540   -0.2412964881    0.0408918572
 C   -0.0744020974   -0.0018910770    1.5637446665
 C   -1.2600274648   -1.0059516137    1.5397542524
 C   -1.3553477461   -0.8301078236   -0.0077584948
 C   -2.4256550158    0.1505962743   -0.4571681957
 C   -2.5682508836    0.4781389419   -1.9738113064
 C   -4.1093692745    0.4625815746   -1.7973190618
 C   -3.9106613850   -0.3204794543   -0.4712078210
 H   -0.1469413923    1.5453280301   -0.6609450903
 H    0.8280636826   -1.0307075746   -0.1457266645
 H    0.7789587062   -0.2170248050    2.2109138873
 H   -0.4116578471    1.0199832318    1.7684159373
 H   -0.9538679945   -2.0157159258    1.8242442764
 H   -2.1483880630   -0.7395272877    2.1173639680
 H   -1.4579080364   -1.7549499521   -0.5863195703
 H   -2.3562942876    1.0844435590    0.1180744637
 H   -2.1014024945    1.3908915896   -2.3516675004
 H   -2.2204769088   -0.3591800384   -2.5869566571
 H   -4.5082595733    1.4655926939   -1.6188486861
 H   -4.7064338553   -0.0101512004   -2.5806347323
 H   -3.9766161907   -1.4022609992   -0.6280405615
 H   -4.5412306020   -0.0559606045    0.3812854628