15

 O    0.0150690037   -0.0833844307   -0.0530538425
 C   -0.0530341523    1.1193599647   -0.0046543101
 C    1.1732380704    1.9504096715    0.0345806237
 N    2.1042654473    2.6356379255    0.0665284658
 C   -1.3293629514    1.9006406692    0.0212939650
 C   -1.8459795861    2.9720537806   -0.9774142263
 N   -2.9862125532    2.9011188093    0.0548532748
 C   -2.7745071470    1.3728480287   -0.0054652157
 C   -1.8539168483    2.8892169144    1.0982344450
 H   -1.3368348389    3.9373955107   -1.0058531668
 H   -2.1324060738    2.6304231549   -1.9745346357
 H   -3.1348092986    0.9173604591   -0.9297363837
 H   -3.1418432565    0.8450705501    0.8766189542
 H   -2.1478892500    2.4693355885    2.0627414702
 H   -1.3453036051    3.8490749733    1.2073835321