20

 C   -0.0340244781    1.5514532500    0.0277515953
 C    0.0235054824    0.0495513905   -0.0359567353
 C   -0.0212661721   -0.6251954738   -1.1867358914
 C   -0.0225045917   -2.1241885795   -1.3233278723
 C   -0.3304567111   -2.8235333078    0.0057411968
 C    0.4657730185   -2.1842715476    1.1437772681
 C    0.0850111567   -0.6930865350    1.3008303997
 C    1.0080546310   -0.0426863633    2.2401615084
 N    1.7403212233    0.4531067300    2.9846651062
 H    0.8616315630    1.9698530627    0.5004310495
 H   -0.1319703879    1.9829464532   -0.9712583313
 H   -0.8884256830    1.8894035511    0.6290510653
 H   -0.0722008894   -0.0554924345   -2.1126854544
 H   -0.7525764706   -2.4204644434   -2.0865713372
 H    0.9526760271   -2.4574843043   -1.7088997756
 H   -1.4035682277   -2.7434360674    0.2220162492
 H   -0.1005523289   -3.8916537905   -0.0599012422
 H    0.2946032843   -2.7029315396    2.0916166338
 H    1.5385626832   -2.2531405044    0.9304697305
 H   -0.9110315989   -0.6315479464    1.7667606467