20

 C    0.0567022284    1.5617098551   -0.1557278131
 O    1.3481830312    2.1372516454   -0.0274084318
 C    2.2325329938    1.4554521866    0.8565757185
 C    1.6969542090    1.3444543952    2.2927213639
 C    0.5619251216    0.2908282757    2.4538108981
 N    0.2637800459   -0.5753859386    1.3062283294
 C   -0.0058932665    0.0528862363    0.0097449924
 C    1.2487767471   -0.7247316071    0.2333662672
 C    2.5413627273    0.0613273704    0.3031206293
 H   -0.6399264980    2.0336882774    0.5586273780
 H   -0.2951674466    1.8245291627   -1.1595282921
 H    3.1349949029    2.0736223363    0.8595940393
 H    2.5426383209    1.0725846721    2.9339866796
 H    1.3574883154    2.3306800611    2.6237211661
 H    0.7986738537   -0.3745172968    3.2903096784
 H   -0.3774994799    0.7874260826    2.7197984148
 H   -0.8326669438   -0.4054758131   -0.5311684401
 H    1.3253998025   -1.7353210272   -0.1647657576
 H    2.9838239994    0.1458647186   -0.6952212127
 H    3.2688439059   -0.4496453926    0.9463090425