19

 C   -0.0057234988    1.5652150493   -0.0029413292
 C    1.4807349379    1.8914674497   -0.0047774614
 C    2.3483534104    1.0577956159    0.8743012255
 C    1.7343491744    0.1075617693    1.8595105016
 N    0.4760464192    0.5295134140    2.5278624319
 C    0.4299628835   -0.4578952253    1.4359690642
 C    0.0166101288    0.0255154721    0.0481346369
 C    1.2249624340   -0.2815014053   -0.8743153183
 N    2.2374015193    0.7592034669   -0.5868234490
 H   -0.5399801644    2.0074092484    0.8376715042
 H   -0.4603551400    1.9102415729   -0.9383795192
 H    1.8040864108    2.8890339323   -0.2880415632
 H    3.3276236940    1.4497783467    1.1354569442
 H    2.4250583249   -0.5058645714    2.4312537114
 H    0.3963369994    0.0456997715    3.4187337146
 H    0.1966981824   -1.4902061254    1.6839365536
 H   -0.9165475831   -0.4317184238   -0.2877633479
 H    1.6450017702   -1.2795502987   -0.7107934104
 H    0.9556040471   -0.1927402292   -1.9320466596