18

 C    0.5469616317    1.3142294860   -0.2541394772
 C   -0.0880115770   -0.0008860415    0.1856401737
 O   -0.2065890893   -0.9070560442   -0.9409261787
 C    0.7673109711   -1.8007658122   -1.2623936868
 N    0.6630441487   -2.5543815014   -2.2757976665
 C    1.9852761250   -1.8856637705   -0.3668971414
 C    1.6575107186   -1.6354607877    1.0923845126
 O    1.9818362541   -0.3366277433    1.5950301331
 C    0.6048343715   -0.6520374176    1.3762500219
 H    1.5992962998    1.1796908018   -0.5115479225
 H    0.0117331413    1.7101095579   -1.1204794536
 H    0.4948024529    2.0456118013    0.5582199122
 H   -1.1323547893    0.1778290247    0.4574488878
 H   -0.2051019318   -2.3502456987   -2.7754519225
 H    2.4357229380   -2.8652273870   -0.5268361154
 H    2.7174971541   -1.1349817429   -0.6864371597
 H    1.8366326814   -2.4465374706    1.7948838273
 H    0.0156142991   -0.7341857142    2.2873233558