19

 C    0.0067557793    1.6168485282    0.0108603832
 C    0.0080744636    0.0771948883    0.0026098398
 C   -1.3345193026   -0.4951644597    0.0125815053
 C   -2.4506262056   -0.9450406621    0.0208638827
 C   -3.8083105802   -1.4958298268    0.0300790343
 C   -3.8434374338   -2.9606257415    0.0220989004
 C   -3.8858796590   -4.1621283419    0.0159265265
 C   -3.9081853527   -5.6194393840    0.0093154124
 O   -5.2558073639   -6.0770902749    0.0196833916
 H    1.0317361935    1.9994239353    0.0029947657
 H   -0.5147391692    2.0095240657   -0.8662560269
 H   -0.4976363582    2.0000586505    0.9020521975
 H    0.5508787229   -0.2835538387   -0.8805086502
 H    0.5678266485   -0.2929141077    0.8711530659
 H   -4.3491765378   -1.1249039502    0.9120689465
 H   -4.3651001701   -1.1150139836   -0.8376712749
 H   -3.3713237089   -5.9833759183   -0.8820422251
 H   -3.3548651492   -5.9917302328    0.8870613202
 H   -5.2304049264   -7.0393926859    0.0146848550