20

 C   -0.2050288191    1.5567385180   -0.0114928856
 C    0.0403316079    0.0484722754    0.0019776707
 C    0.7665467669   -0.5107470666   -1.2714609080
 C    1.8988368117   -1.3568416367   -0.6576379358
 C    1.2555016904   -1.9169779732    0.6190473094
 C    0.9382742218   -0.5007016967    1.1477005397
 C    2.3427268816    0.1153149950    1.0516607441
 O    2.8972164158   -0.4569934256   -0.1483604931
 H    0.7185813443    2.1219447647   -0.1720987036
 H   -0.8933791154    1.8262532092   -0.8195344474
 H   -0.6502331462    1.8985764792    0.9296739905
 H   -0.9340885282   -0.4454547608    0.0980790976
 H    0.0978367450   -1.1093846685   -1.8983118415
 H    1.1888316346    0.2852277839   -1.8911765294
 H    2.3904047096   -2.0574207405   -1.3337565136
 H    0.3634541776   -2.5214031545    0.4344887809
 H    1.9611516996   -2.4768164934    1.2381552739
 H    0.4925793229   -0.4295960594    2.1417281637
 H    2.3416369180    1.2077768064    0.9725631030
 H    2.9671912711   -0.1605657860    1.9126685147