16

 O   -0.4835889723    0.3562403981    0.4243950177
 C   -0.1008381586    1.2271210406   -0.3103770343
 C    1.2132130597    1.9741299081   -0.1433485391
 N    1.7496985871    2.3751119702   -1.4461759426
 C    2.6760108088    3.4326910360   -1.4523450128
 C    4.0451540145    3.5150718245   -1.3963208415
 N    4.4587217896    4.8256187639   -1.4779820929
 C    3.3578512438    5.5337466785   -1.5708451477
 N    2.2466032299    4.7426269075   -1.5638962691
 H   -0.6971814846    1.5721344060   -1.1856374865
 H    0.9868810492    2.8862664313    0.4250028463
 H    1.8969961749    1.3742096063    0.4731373746
 H    2.1236788589    1.5755961918   -1.9419509849
 H    4.7519853527    2.7034254795   -1.3078826550
 H    3.2993155577    6.6098810073   -1.6381884278
 H    1.2892563386    5.0266490905   -1.6909830345