16

 C    0.0138255968    1.5359905684   -0.1035265155
 O    1.2824827649    2.0872718961    0.2769151948
 C    2.2658131791    1.0816205154    0.3246659033
 O    2.2631168452    0.3278898329   -0.8866655980
 C    1.2726009955   -0.6627030182   -0.6234507294
 C    1.5939407691   -1.2296152691    0.7733496544
 C    1.9423738626    0.0481587542    1.4170965654
 N    0.5134153971   -0.4012374983    1.4178626227
 C    0.0410865702    0.0237502988    0.0514692126
 H   -0.7519898757    1.9786006367    0.5429465171
 H   -0.2080712450    1.8078707081   -1.1444568521
 H    3.2273509690    1.5824146686    0.4392046664
 H    1.1415077812   -1.3017014515   -1.4940086254
 H    1.8628623607   -2.2270907471    1.0963429278
 H    2.3963380634    0.1164745597    2.3972194843
 H   -0.9212647842   -0.4392678847   -0.1728845582