17

 O   -0.0787196250    0.0406966851    0.0008277749
 C   -0.0091481083    1.2382547170    0.0074783693
 C    1.3469032215    1.9897643759   -0.0012958035
 O    2.3826751989    1.3710789130   -0.0148104733
 C    1.2715258434    3.4811617437    0.0081152099
 C    0.6052907545    4.3970702477    1.0972519072
 C    1.1826367177    5.3597896463    0.0203788776
 C    2.4635238723    4.4727218841    0.0004949828
 C    0.5807091050    4.4099205374   -1.0544420631
 H   -0.9163257351    1.8818143945    0.0203990132
 H   -0.4833214473    4.3506510288    1.1845144419
 H    1.0898736767    4.3994732188    2.0767051903
 H    1.1381219817    6.4485002561    0.0273942615
 H    3.0872924492    4.4850543218    0.8968742964
 H    3.0667525261    4.4958377719   -0.9096324169
 H    1.0427763314    4.4241597851   -2.0446204360
 H   -0.5096225627    4.3644626428   -1.1173726621