16

 N    0.1061919807    1.4731394412   -0.1118548060
 C    0.0092031908    0.0367390968    0.0124725369
 C    0.1986751788   -0.8944290555   -1.2212277580
 O   -1.1187451151   -1.4617082509   -1.0430120735
 C   -1.3941519889   -0.5932522261    0.0780123904
 C   -1.4355252098   -1.4028810245    1.3741761685
 O   -2.3506339385   -2.0112338686    1.8405740270
 O   -0.1972067267   -1.3831604230    1.9453663507
 C    0.6881815573   -0.4521472134    1.3086681242
 H    1.0779421238    1.7716787127   -0.1077798788
 H   -0.2908929789    1.7867322634   -0.9925493009
 H    0.2831968460   -0.3606022583   -2.1766609138
 H    0.9875969735   -1.6536328894   -1.1588435111
 H   -2.2818509415    0.0281765628   -0.0623552160
 H    1.6396235931   -0.9613202375    1.1305731963
 H    0.8496013655    0.3911406702    1.9873779643