20

 C    0.0528100281    1.5249366226   -0.0379320032
 C    0.0006752211   -0.0115506031    0.0558641869
 C    0.7935120508   -0.5114427913    1.2780469892
 C   -1.4144118110   -0.5284478859    0.0524825106
 C   -1.9904707403   -1.3460839822   -0.8946174456
 O   -1.5247592483   -1.9127529147   -2.0402583284
 N   -3.2872369430   -1.5980048141   -0.5530435789
 C   -3.5782649511   -0.9439556668    0.6300200768
 C   -2.4462413272   -0.2809639243    1.0213688850
 H    1.0874153760    1.8840493071   -0.0721691463
 H   -0.4678852676    1.8834767338   -0.9306066263
 H   -0.4310629507    1.9805699416    0.8327130175
 H    0.5094041533   -0.4052794465   -0.8395628119
 H    1.8304051941   -0.1586392631    1.2478609400
 H    0.3421434598   -0.1448045301    2.2062657335
 H    0.8007771255   -1.6043418085    1.3233587034
 H   -0.6054528062   -1.6504672148   -2.1506664663
 H   -3.9109012016   -2.1715246090   -1.0928631293
 H   -4.5569670003   -1.0145149492    1.0741282082
 H   -2.3508314516    0.3246642985    1.9101060151