21

 O   -0.1192943870    1.4622153806   -0.0975522719
 C   -0.0251992320    0.0476600018   -0.0373785294
 C   -1.4200835336   -0.5713103862   -0.2051565126
 C   -1.7528192287   -0.1541121886   -1.6655434836
 C   -0.6127939084   -1.1397443493   -2.0037737668
 C   -1.0724397249   -1.9950628236   -0.7825122313
 C    0.1447191246   -2.7376969767   -0.2130192465
 C    1.3441137228   -1.9169698192   -0.7784405856
 C    0.6624156109   -0.6280758177   -1.2714619608
 H    0.7725171868    1.8195545770   -0.0478145291
 H    0.4576173157   -0.2527287750    0.9038327952
 H   -2.1237689904   -0.4303947441    0.6160381214
 H   -2.7255475202   -0.5312231593   -1.9913053498
 H   -1.6432462113    0.8988554278   -1.9255248706
 H   -0.4749217625   -1.5655141189   -2.9990554561
 H   -1.9657238892   -2.6004968938   -0.9448321490
 H    0.1383094300   -2.7636336656    0.8817977695
 H    0.1694912239   -3.7773161050   -0.5531024490
 H    2.1202237009   -1.7218272266   -0.0310768449
 H    1.8190722506   -2.4476689174   -1.6108205619
 H    1.3077832320    0.0524384999   -1.8320577671