16

 C   -0.0499102861    1.5683678449    0.0426170377
 C   -0.0136587169    0.0213186181    0.0332895486
 C    0.7083125297   -0.5020643529    1.1959611516
 C    1.3085261469   -0.9147240024    2.1509415549
 C   -1.3983121458   -0.5603031352   -0.0564889469
 C   -1.9990134748   -1.3919834219   -0.9498477008
 C   -3.3208361592   -1.5173849721   -0.4458070599
 N   -3.5024504237   -0.8235350678    0.6499118246
 O   -2.2756719785   -0.2110624416    0.8997124535
 H    0.9673654775    1.9645277255    0.0776857982
 H   -0.5454271153    1.9385991933   -0.8590309944
 H   -0.5965476414    1.9292869245    0.9159158075
 H    0.5128222302   -0.3068592069   -0.8713643262
 H    1.8323848973   -1.2865668603    2.9966128291
 H   -1.5669839587   -1.8468848244   -1.8252445665
 H   -4.1463634411   -2.0899221809   -0.8448185610