20

 C    0.1154800466    1.6226711013    0.0393466543
 C    0.0957402087    0.0941539925   -0.0277032351
 C    0.8350121674   -0.5581341423   -1.1832923709
 C    2.3555956216   -0.4810252153   -1.1842301220
 C    1.6517017668   -1.6727006165   -0.5957765883
 C    1.7762950348   -3.0743718983   -1.1135938410
 O    1.5115553895   -1.6223136356    0.8235077860
 C    0.7296496458   -0.5622055452    1.1966149236
 N    0.5561841197   -0.1879082626    2.3895133492
 H    1.1401350601    2.0042915385    0.0002381561
 H   -0.4413123454    2.0551186052   -0.7973160320
 H   -0.3344241052    1.9579764669    0.9765634680
 H   -0.9508893426   -0.2378102807   -0.0573086865
 H    0.3246233794   -0.6824218826   -2.1312800803
 H    2.8544188014   -0.6093470769   -2.1387909905
 H    2.8498780954    0.2044025864   -0.5028800242
 H    1.8633387357   -3.0678728920   -2.2035728408
 H    2.6658407675   -3.5640108171   -0.7041417911
 H    0.9008806877   -3.6715375013   -0.8390629305
 H    1.0844626452   -0.7774296744    3.0345041161