19

 C   -0.0737295330    1.5213865268   -0.0585561633
 C    0.1098129719    0.0142266426    0.0248315438
 O    1.1032976314   -0.4546749569   -0.9109399987
 C    2.0126806921   -1.2415296093   -0.1016334094
 C    2.0995095017   -2.5918802781   -0.8543045231
 O    0.8148491677   -2.9686207799   -0.2159051968
 C    1.1422443583   -2.0064320654    0.8368232755
 C    0.7091497059   -0.5623395537    1.3021496385
 C    2.2909790463   -0.2643341487    1.0784676190
 H    0.8329726415    2.0613839826    0.2277418320
 H   -0.3280906322    1.8063625992   -1.0836919778
 H   -0.8911850728    1.8430793153    0.5953788616
 H   -0.8448826844   -0.4794554323   -0.2030108626
 H    2.0163973596   -2.5489780569   -1.9412375240
 H    2.9026460971   -3.2626091431   -0.5316454281
 H    1.6653093336   -2.5265628164    1.6447406644
 H    0.2110512891   -0.3658019835    2.2518472562
 H    2.9050342432   -0.6720639211    1.8808663758
 H    2.5773176229    0.7607445388    0.8403936268