16

 C    0.0026877878    1.4542962690   -0.0190249537
 N    0.0732994329    0.0092628269   -0.0070422552
 C    0.1399644590   -0.7981808892   -1.1053405257
 C    0.1387216024   -2.1158494148   -0.6916008614
 C    0.0570636099   -2.0937284529    0.7234737530
 O    0.0328463424   -3.1449912697    1.6030314624
 C    0.0132867921   -0.7779385877    1.1365679288
 N   -0.0262640211   -0.1920917307    2.4204115227
 H    0.6979187293    1.8556899861   -0.7613451782
 H   -1.0072450301    1.8112164320   -0.2554538977
 H    0.2769068931    1.8184694820    0.9717854873
 H    0.1760855970   -0.3769789208   -2.0973979890
 H    0.1952202954   -2.9852383055   -1.3299346969
 H    0.1459273030   -3.9577835796    1.1029993600
 H    0.6418650483   -0.6402366401    3.0389042368
 H   -0.9389407415   -0.2895234951    2.8566795967