25

 C   -0.0375330293    1.5480066139    0.2743445253
 C   -0.0146596146    0.0312697634    0.0068655991
 C    0.6999550781   -0.6826645695    1.1685192406
 C   -1.4653954810   -0.4790904272   -0.0776793289
 C    0.6724826528   -0.2784580758   -1.3485376374
 C    2.1137594552    0.1695540278   -1.4970344368
 C    3.2705227863   -0.7373404698   -1.1090098724
 C    2.9891914989   -0.4348809690   -2.5586457263
 O    2.4149276689   -1.4188052288   -3.3722884405
 H    0.9699133229    1.9553370544    0.4062835835
 H   -0.5135297713    2.0891374337   -0.5514282381
 H   -0.6012406765    1.7720498707    1.1867498375
 H    0.1818867901   -0.4931007397    2.1154397356
 H    0.7198962847   -1.7674461071    1.0135507751
 H    1.7330697028   -0.3411277044    1.2780160655
 H   -2.0137296095    0.0177119672   -0.8857758989
 H   -1.4940503073   -1.5575279476   -0.2691279370
 H   -2.0044762323   -0.2906872906    0.8573697951
 H    0.6174485349   -1.3552730570   -1.5403516456
 H    0.0803353070    0.1947334621   -2.1441531923
 H    2.2804917027    1.2308662986   -1.3355551060
 H    4.1508036147   -0.3105651742   -0.6397001884
 H    3.0128327051   -1.7349918328   -0.7682456588
 H    3.6768355705    0.2329640117   -3.0781688798
 H    3.0813904865   -2.0941165701   -3.5343748000