14

 O   -0.0039513012    0.0085314084   -0.0534543793
 C   -0.0167767174    1.2070019192   -0.0430817146
 N   -1.0247653403    2.1408380202   -0.0484418778
 C   -0.1576511005    3.3174340642    0.0290654993
 C    1.0541901593    2.3375121744    0.0048055305
 C    1.9698265516    2.3507824982    1.2345758257
 C    3.0175120860    1.3324120979    1.1741196780
 N    3.8649297455    0.5494174579    1.1219157986
 H   -2.0287090935    2.0413591168   -0.0707595073
 H   -0.2285579652    3.9921175019   -0.8292748482
 H   -0.2637579003    3.8924474278    0.9557845545
 H    1.6409581053    2.3930600586   -0.9143909276
 H    2.4547591393    3.3298068077    1.3268812242
 H    1.3822045816    2.1989903069    2.1474911039