15

 C   -0.0602645351    1.5903043976   -0.0404717391
 C    1.4848334193    1.4254433138   -0.0136315894
 C    1.2211752760    0.1931592597    0.9251685268
 C   -0.0350363915    0.0367946592   -0.0058875598
 C    0.6800386874   -0.3110993584   -1.3313564513
 O    0.7120369444    0.7323192743   -2.3191677790
 C    1.7595690900    0.6752247611   -1.3368536784
 H   -0.4365275104    2.0073401947    0.8949945637
 H   -0.5109283702    2.0787484712   -0.9021092478
 H    2.1554335944    2.2383686905    0.2624617645
 H    1.9595528320   -0.6149952819    0.9245496224
 H    0.9688615492    0.4750363156    1.9508169836
 H   -0.9034903345   -0.5564587373    0.2780455788
 H    0.7527689352   -1.3277632228   -1.7023728182
 H    2.7634779038    0.5093442727   -1.7126174369