21

 C    0.0280286724    1.6105695535    0.0130944856
 C    0.0297224391    0.0793803551    0.0133474310
 O    0.7980527652   -0.4237849362    1.0948090458
 C   -1.3832014185   -0.5457103226    0.0501326064
 C   -2.2724188090   -0.0998395807   -1.1095101034
 C   -1.3179695981   -2.1001721116    0.1799861003
 O   -1.7297018824   -2.3773681788    1.5139354677
 C   -2.5607665162   -1.3059417960    1.8619978489
 O   -1.9686736655   -0.1501929097    1.3122336744
 H    1.0562908049    1.9654730938    0.1173184305
 H   -0.3840254882    2.0225357295   -0.9126856655
 H   -0.5594866899    1.9934345130    0.8531489875
 H    0.5292682947   -0.2829292425   -0.8942711718
 H    0.2521260393   -0.3068238238    1.8828583713
 H   -1.8262827865   -0.3834696323   -2.0693521326
 H   -3.2554033690   -0.5756203306   -1.0444127044
 H   -2.4185886313    0.9820411216   -1.1021359232
 H   -1.9939594662   -2.5797363792   -0.5423747486
 H   -0.3075231371   -2.4901857092    0.0537297925
 H   -3.5808992942   -1.4453119837    1.4579246866
 H   -2.5983450539   -1.2120064593    2.9508540209