12

 C    0.3680042145    1.0798848038   -0.1046491646
 C   -0.4346552156   -0.1159489057    0.3098012826
 N   -0.9772933623   -0.4229790793    1.3954924669
 O   -0.6867216190   -1.0132419681   -0.7642483042
 C    0.3303555453   -1.7656263964   -1.2013692013
 O    1.4530831031   -1.7811274393   -0.7823740605
 C   -0.1211322049   -2.6099980781   -2.3128194231
 N   -0.4172731795   -3.2918741219   -3.1962955346
 H    0.4476624957    1.7909924167    0.7190120558
 H    1.3711740780    0.7677432760   -0.4076283290
 H   -0.1061929885    1.5707030837   -0.9604561786
 H   -0.8087699068    0.2936126587    2.1011093605