16

 C   -0.0908977827    1.4936207438    0.0494221081
 C   -0.0073169872    0.0059110023   -0.0192629310
 C    0.0328374065   -0.8433705533   -1.1120837065
 N    0.0088982838   -0.5874072338   -2.5167433593
 C    0.1111696810   -2.1787308592   -0.6192490576
 O    0.1675194379   -3.2763131214   -1.4160591246
 C    0.1175743800   -2.1296026763    0.7515855930
 N    0.0448488885   -0.7872707629    1.0956560735
 H    0.7727178202    1.9390460366    0.5595904782
 H   -0.1212195739    1.9055944019   -0.9629817397
 H   -0.9920719883    1.8392421826    0.5718450509
 H    0.7944262988   -0.0246348139   -2.8257941770
 H   -0.8394466008   -0.1176015676   -2.8148937187
 H    0.1417207757   -2.9233715676   -2.3186258535
 H    0.1672490055   -2.9055667248    1.4954457422
 H    0.0316246749   -0.4450931263    2.0394800520