14

 N    0.0729168846   -1.1434426319   -0.0295258744
 C    0.0095301901    0.0132499644   -0.0078233506
 C   -0.0252601149    1.4324710907   -0.0012481764
 C   -1.1246958092    2.1997234884    0.0854249671
 C   -0.7967676459    3.6735750333    0.0344306623
 C    0.7275347153    3.6933536160   -0.0231698240
 N    1.3660551046    3.1042430617    1.1699168374
 C    1.2090976461    2.2849711635   -0.0579601823
 H   -2.1329359496    1.8207130882    0.2000801257
 H   -1.2464034425    4.1473983340   -0.8477905980
 H   -1.1805180712    4.2035797129    0.9140538893
 H    1.2394692097    4.4839704948   -0.5599537285
 H    2.3283371443    3.4335182961    1.2234439996
 H    2.0862537688    1.9564410781   -0.6026272072