21

 C   -0.5200053632    1.5576165310    0.0944067015
 C   -0.1464757460    0.1125526084   -0.0132035064
 C   -0.0818520328   -0.6270398576   -1.1203454929
 C    0.3549647738   -2.0475268799   -0.8693697708
 C    0.4239100035   -2.1646632670    0.6819966914
 C    1.7831194245   -2.6550559716    1.2523164259
 C    2.4160037837   -1.4045852749    1.8141294184
 C    1.5871725365   -0.3632105307    1.8098383998
 C    0.2368870415   -0.7012311049    1.2119667472
 H    0.2974930824    2.1510770300    0.5237923189
 H   -0.7683452793    1.9843314569   -0.8812966485
 H   -1.3843382723    1.6962632863    0.7570970560
 H   -0.2951776908   -0.2557484269   -2.1183560464
 H   -0.3382858051   -2.7780552201   -1.3050831407
 H    1.3306566641   -2.2474564933   -1.3345500825
 H   -0.3892451450   -2.8055771978    1.0292744854
 H    1.6466540340   -3.4088022435    2.0398813269
 H    2.4077011905   -3.1324347104    0.4866576347
 H    3.4318867824   -1.3904477616    2.1956130020
 H    1.8251868857    0.6254594009    2.1879597243
 H   -0.5461990580   -0.6209165334    1.9816128260