21

 C   -0.6545741335    1.3576913941    0.2086580665
 C    0.0062611284   -0.0338547376    0.0218425192
 C    0.7138122090   -0.0882174551   -1.3104483503
 C    1.9963251383   -0.1736069205   -1.6692870607
 C    3.2705731159   -0.2486848478   -0.8684046228
 C    3.1885610989   -0.6608711579    0.6023710611
 C    2.2029563751    0.1781060854    1.4431569630
 C    0.7949202380   -0.3647775215    1.2861639675
 O    0.2922381736   -1.0496244333    2.1495416201
 H    0.0978492931    2.1495472527    0.2738583736
 H   -1.3017485882    1.5835913731   -0.6441803336
 H   -1.2632681771    1.3753054310    1.1170778530
 H   -0.8072008752   -0.7692127268    0.0041323487
 H    0.0014803589   -0.0103461411   -2.1323951810
 H    2.1805456190   -0.1513149843   -2.7430197017
 H    3.9540725761   -0.9348437650   -1.3854086528
 H    3.7619215815    0.7353159108   -0.9335145643
 H    2.9169360891   -1.7200741351    0.6838968600
 H    4.1885013464   -0.5670009294    1.0388720724
 H    2.4541379941    0.1092892586    2.5040917866
 H    2.2585225884    1.2296084198    1.1367338156