20

 C    0.6976982348    1.4231523001   -0.1901593266
 C   -0.0643345155    0.1090994886    0.0461117047
 C    0.1363972172   -0.9403047826   -1.0654671990
 C    1.2963233136   -1.7615994450   -0.5310232085
 C    1.7874884982   -3.0484485370   -1.0981984054
 C    2.6661078069   -1.8066224867   -1.1448716917
 O    1.2367487215   -1.6807510294    0.8913787531
 C    0.4750449235   -0.6098072786    1.2723067859
 N    0.2668193539   -0.2684676956    2.4696806037
 H    1.7625490204    1.2387929166   -0.3666249274
 H    0.2950061780    1.9483677573   -1.0618671365
 H    0.6061120236    2.0731185327    0.6833681696
 H   -1.1199849318    0.3368297212    0.2076465907
 H   -0.7546448826   -1.5696372117   -1.1651742418
 H    0.3515635386   -0.5000528439   -2.0418536059
 H    2.0627891247   -3.8254106480   -0.3940767421
 H    1.3391685169   -3.4060851561   -2.0192659587
 H    2.8219063499   -1.3157216439   -2.0997514660
 H    3.5121168511   -1.7737734593   -0.4678198569
 H    0.7583308570   -0.8906916988    3.1136344889