19

 C    0.0179599257    1.4954753557    0.1466561875
 C    0.0166644051   -0.0079127756   -0.0183435350
 C    0.5986603856   -0.5132238612   -1.3453742697
 C    0.5417154790   -2.0665212350   -1.3947646382
 C   -0.0699259770   -2.6289627395   -0.1218211252
 C    0.1943039985   -1.9015325590    1.1837684565
 O    0.7497249377   -0.6136808156    1.0539482243
 C   -1.1666608421   -1.8319750895    0.5604622772
 O   -1.3207977852   -0.5078519973    0.1056250774
 H    1.0401688248    1.8779641815    0.0943420037
 H   -0.5736526677    1.9606104930   -0.6455495399
 H   -0.4126523819    1.7573582954    1.1151492326
 H    0.0253180186   -0.0731545216   -2.1663442690
 H    1.6285957480   -0.1552734832   -1.4318703050
 H   -0.0460607695   -2.3987937555   -2.2566080954
 H    1.5465856287   -2.4803856288   -1.5274603727
 H   -0.1543811129   -3.7099276455   -0.0580199704
 H    0.4564713626   -2.3906480027    2.1126048938
 H   -2.0800031480   -2.2609698955    0.9509384276