16

 O   -0.2173786335    1.2565962257    0.1958834924
 N   -0.0857597628   -0.1410691974    0.1924685922
 C   -1.2113595054   -0.7148081264    0.1659720775
 C   -2.6834824735   -0.3565463637   -0.0683956902
 C   -2.6847116749   -1.6055005359   -1.0070300958
 C   -1.5835364303   -2.1756059852   -0.0554771889
 O   -2.2392577750   -2.6988470419    1.1039119576
 C   -2.7915090637   -1.6502916696    1.8753752218
 O   -3.4560244865   -0.6785906018    1.0903592566
 H    0.7010549637    1.5480697377    0.2088190874
 H   -2.9750635253    0.6293878693   -0.4236707804
 H   -3.6181560550   -2.1694418302   -1.0415304851
 H   -2.3045667825   -1.3824181697   -2.0065146653
 H   -0.8478848118   -2.9010825552   -0.3987590168
 H   -3.5293208291   -2.0899930319    2.5485224001
 H   -1.9882124142   -1.1616338338    2.4495232069