18

 C   -0.0221993578    1.3480164692    0.4860292665
 C   -0.1632279472    0.3853329580   -0.6908133006
 N   -1.5600484641    0.0121148131   -0.8839794681
 C   -1.8247719487   -1.0534146485   -1.5056998076
 N   -1.1260121939   -2.0819759777   -2.1269171212
 C   -2.2849980644   -3.0006726856   -2.1121297006
 C   -3.1575094647   -1.7719955489   -1.6992357718
 O   -3.9271428873   -1.9143817798   -0.5358567037
 H    1.0200496586    1.6549603241    0.6195200842
 H   -0.6308681392    2.2415440375    0.3202298108
 H   -0.3646403951    0.8771539075    1.4126581312
 H    0.2139023801    0.8669929721   -1.6049607196
 H    0.4765912729   -0.4984158540   -0.5218051018
 H   -0.1595431098   -2.3320436526   -1.9724346790
 H   -2.4969929417   -3.4692810481   -3.0765887249
 H   -2.2586033364   -3.7518643461   -1.3168657354
 H   -3.7576364187   -1.3821711518   -2.5313385552
 H   -3.6878770426   -1.1726509083    0.0341844467