16

 C    0.6799064743   -1.0170469010    0.2035274218
 C    0.2997271529    0.1180584751    0.0959107773
 C   -0.1697788320    1.4873555032   -0.0162535705
 C   -0.5466809714    2.2234277254    1.2993492223
 C    0.5640451046    3.2141772652    0.8987127901
 C    1.7491174816    3.3277548164    1.8639844344
 C    2.8298256718    4.1554389992    1.3330145677
 N    3.6739490654    4.8234425482    0.9139296993
 O    0.8924388704    2.4465746775   -0.2759135640
 H    1.0183675917   -2.0205817903    0.2874167615
 H   -0.9408626909    1.5565823754   -0.7931457246
 H   -1.5580095595    2.6278774406    1.3328089564
 H   -0.3486025226    1.6492901524    2.2051989522
 H    0.2099124810    4.2157709229    0.6274195631
 H    1.4041201295    3.7635352723    2.8097727323
 H    2.1353672134    2.3259102576    2.0800741507