16

 O    0.0744748825   -0.0361027589    0.0813507185
 C    0.0453583233    1.1725222778    0.1016421414
 N   -1.0587725572    1.9601929548    0.2689516919
 C   -0.8430473730    3.3934318660    0.1792167619
 C    0.6934316195    3.5359091514    0.2491168218
 O    1.1623986421    3.8249064888    1.5615146650
 C    1.7877024583    2.6569697400    2.0682590850
 O    2.2391870370    1.9220422501    0.9582607669
 C    1.2577752388    2.1260865320   -0.0401029761
 H   -1.9745921718    1.5415129417    0.3216875881
 H   -1.2309858146    3.8053499350   -0.7621401664
 H   -1.3090113621    3.9330700282    1.0089685027
 H    1.0543825120    4.3181014004   -0.4227455621
 H    2.6487305557    2.9413148848    2.6792356676
 H    1.0708039222    2.0695092351    2.6663425464
 H    1.7288656572    1.9959952427   -1.0159199026