17

 C   -0.0230644777    1.5405768436    0.0842452082
 C   -0.0110613726    0.0091668783    0.0363728665
 O    0.6963974628   -0.4194949725    1.1968985314
 C   -1.3805174996   -0.5145016131    0.0136723112
 C   -2.4950371671   -0.9626097982   -0.0227295134
 C    0.7701511598   -0.5004575247   -1.2413661484
 N    2.1486318195   -0.0447662955   -1.3392724808
 C    0.7655040693   -1.9751394702   -1.2241518049
 N    0.7697022678   -3.1280762832   -1.1499277517
 H    0.9978617909    1.9201321752    0.1675436299
 H   -0.4948666632    1.9541294612   -0.8108501017
 H   -0.5845210383    1.8691978720    0.9603427233
 H    0.5466233210   -1.3673235277    1.3041220036
 H   -3.4779934130   -1.3654897483   -0.0497727675
 H    0.2239295426   -0.1720503317   -2.1322080094
 H    2.1757798313    0.9437053466   -1.5627742600
 H    2.6037943267   -0.1723952819   -0.4391226562