23

 C   -0.0623087249    1.5466040098   -0.0006440198
 C    0.0281066843    0.0162357294   -0.0112000782
 O   -1.2939857140   -0.5386962427    0.1110695605
 C    0.6764133820   -0.4999027605   -1.3130538157
 C    0.8773044917   -2.0173365105   -1.2675791625
 C    1.8961478252   -2.4170904212   -0.1887815983
 C    1.6628636331   -1.7090954162    1.1473732414
 C    2.2463708665   -0.3356466571    1.3859521862
 C    0.7588031591   -0.4958940401    1.2204265823
 H    0.9309079964    2.0039572725   -0.0315641927
 H   -0.6254484151    1.9081995800   -0.8703479861
 H   -0.5744451906    1.8886490907    0.9035158017
 H   -1.8215534536   -0.1906368150   -0.6161766756
 H    0.0278599795   -0.2177599056   -2.1528300572
 H    1.6338164302    0.0093797135   -1.4838969602
 H   -0.0910098767   -2.4790318116   -1.0476988325
 H    1.2025496231   -2.3910922786   -2.2444904873
 H    1.8529522346   -3.5003212806   -0.0350774978
 H    2.9112766487   -2.2033846560   -0.5481751576
 H    1.6363704497   -2.3627866341    2.0135260153
 H    2.6279421774   -0.0895466916    2.3711373956
 H    2.8123500452    0.1110615914    0.5733965770
 H    0.1580972881   -0.3887734460    2.1186891615