20

 C   -0.0470517572    1.5305869490   -0.0231682970
 C   -0.0198812746    0.0142204230    0.0118701263
 C   -1.2660583513   -0.6492660011   -0.5430279273
 C    1.3210117082   -0.6826501092   -0.2251062506
 C    0.7040694349   -0.6604383237    1.1409921226
 C    1.2537515128   -0.0754578803    2.4539682713
 C    0.7285060370   -1.3824618245    3.1076067246
 O    0.7229570855   -1.8634683769    4.2079673398
 N    0.2499523811   -1.8198262699    1.8934822483
 H    0.8668229763    1.9619940609    0.3956756038
 H   -0.1437777686    1.8931413375   -1.0532954972
 H   -0.8957429065    1.9249448377    0.5479792146
 H   -1.4317408327   -0.3543425003   -1.5854189912
 H   -1.1961530696   -1.7411614357   -0.5188186235
 H   -2.1547484282   -0.3608063679    0.0300018659
 H    1.3126043062   -1.6206619468   -0.7724522806
 H    2.2006549022   -0.0715474785   -0.4041000338
 H    2.3382908668    0.0378622326    2.5050141072
 H    0.7669405879    0.8328343923    2.8140277396
 H   -0.1789737902   -2.6907264883    1.6191099572