17

 C    0.5750894009    0.3631168269   -1.0387529204
 C   -0.1399084435    0.3070734997    0.2937350401
 O    0.2943006882    0.8293018097    1.2976174390
 C   -1.4519024210   -0.4215212876    0.3378084529
 C   -2.4283609118   -0.1799835579    1.4832428171
 C   -3.1416514901   -1.5057727317    1.6217949086
 C   -2.6658539445   -2.4311523519    0.7838373311
 C   -1.6078305252   -1.8435131261   -0.0872374352
 O   -2.0610372906   -0.7585885644   -0.9145054913
 H    1.5405891319    0.8524335328   -0.9081987919
 H    0.7138043643   -0.6381012708   -1.4584307286
 H   -0.0341469147    0.9165794186   -1.7607201586
 H   -1.8741314710    0.1016417744    2.3850952615
 H   -3.1179012380    0.6421129254    1.2581294850
 H   -3.9619928507   -1.6512332093    2.3154779418
 H   -2.9943554569   -3.4595264108    0.7040440889
 H   -0.8015033271   -2.4362214972   -0.5097595697