14

 O   -0.4436963609    0.4126229895   -0.6786154814
 C    0.0177930341    1.0620866023    0.2321397944
 C    1.2267840757    1.8391858437    0.1461143318
 C    2.2385643953    2.4990482447    0.1044834607
 C    3.4285235436    3.3033091543    0.0270479457
 C    4.1708453375    3.3964830929   -1.3482492326
 N    3.9207901130    4.8381735526   -1.3138520386
 C    3.2185999787    4.8656694501   -0.1421134698
 O    2.6836995471    5.7267513147    0.4909462767
 H   -0.4759629467    1.1025298107    1.2239344107
 H    4.1029555119    3.0988258630    0.8637044227
 H    5.2285656786    3.1206136710   -1.3166404013
 H    3.6665079099    2.8712259859   -2.1627504371
 H    4.1598634221    5.5800724246   -1.9546889820