19

 O   -0.4942104752    1.5290101282   -0.0386684150
 C   -0.3597320229    0.1358829898   -0.1105294623
 C   -0.4371407892   -0.7601492660    1.0956070871
 C   -1.3907906611   -0.1703125663    2.1402240042
 C   -2.5290850052   -0.1346941162    1.0741685653
 C   -1.5680241812   -0.7218357071    0.0272323984
 C   -1.9617250915   -1.7287789360   -0.9921576363
 C   -2.0468240328   -1.4045310386   -2.4256500113
 O   -0.9483500409   -2.1576432185   -1.9069954130
 H    0.3233717873    1.8868975990    0.3230789233
 H    0.3295458714   -0.2207979692   -0.8753862537
 H    0.3069391712   -1.5284040192    1.2748817030
 H   -1.6058836738   -0.8608863051    2.9577468287
 H   -1.0933809132    0.7942177248    2.5609781863
 H   -3.3438624739   -0.8212149911    1.3178957876
 H   -2.9469357315    0.8445919857    0.8304011093
 H   -2.5913688056   -2.5412108282   -0.6232403078
 H   -2.7283643355   -1.9587968700   -3.0693409232
 H   -1.8052089563   -0.3942622059   -2.7514343407