23

 C    0.1074263326    1.3931891514    0.3420971144
 C   -0.0591304725   -0.0472637508   -0.1748609653
 C   -1.4766794558   -0.5398056725   -0.1308951094
 C   -2.2202390010   -0.9112847248   -1.1799681180
 C   -3.5627090280   -1.4202007674   -0.7804034490
 C   -3.5376590186   -2.6783593434    0.0669146268
 C   -3.5751280897   -1.3249384782    0.7335862208
 C   -2.2617136947   -0.6718366370    1.1768252061
 C   -1.5263577006   -1.4247603008    2.2961145186
 H    1.1531514364    1.7101941970    0.2809837687
 H   -0.4948489371    2.0908753773   -0.2482974494
 H   -0.2064614721    1.4850215327    1.3869237276
 H    0.3098453340   -0.1095978412   -1.2048549445
 H    0.5845406455   -0.7095546077    0.4209471805
 H   -1.8826508244   -0.8917473513   -2.2114306019
 H   -4.4354848919   -1.2084652735   -1.3885888179
 H   -4.4467834568   -3.2690246653    0.1214129926
 H   -2.6208399223   -3.2587028419    0.0764877145
 H   -4.4822106629   -1.0602420924    1.2649223341
 H   -2.4859605863    0.3365599371    1.5568105552
 H   -1.2731009836   -2.4442760074    1.9887516098
 H   -0.5973599552   -0.9182230160    2.5778711647
 H   -2.1519960452   -1.4905773138    3.1919789009