18

 C   -0.3635233094    1.5196437106   -0.0646425885
 N    0.0620420144    0.1331102383    0.0591547708
 C    1.3494692038   -0.3999772210   -0.3212925252
 C    2.6232231715    0.4628781577   -0.3425032428
 C    2.9232635559    0.8343553787    1.1115092479
 N    1.9459093215    1.7438951670    1.7379831506
 C    1.8431825685    0.2863297150    1.9752270119
 C    0.8572843966   -0.4748854861    1.1063105597
 H    0.4378893587    2.2607555749   -0.0309387571
 H   -0.9117636758    1.6136534334   -1.0095593420
 H   -1.0589122170    1.7471681379    0.7487703897
 H    1.3201723660   -1.2448988830   -1.0083441231
 H    3.4454798438   -0.1402178034   -0.7419228385
 H    2.5318923430    1.3480567197   -0.9815665065
 H    3.9566082898    0.8890304583    1.4410490494
 H    2.3717729661    2.1841457680    2.5504218454
 H    2.0385726065   -0.0956417197    2.9718945613
 H    0.4367108960   -1.3794937165    1.5416447570