18

 C   -0.0255100827    1.4136846483   -0.3237419525
 C   -0.0380635757   -0.0114960226   -0.0258337580
 C   -0.0366139881   -1.1897008833    0.2212164845
 C   -0.0611093637   -2.6189035696    0.5190142398
 C   -1.4135446455   -3.2464636917    0.2128958079
 C   -1.7397328239   -3.7313572130   -1.1630324725
 C   -1.5360153563   -4.7451037430   -0.0426178501
 C   -0.3665100247   -5.5776704942   -0.0434846487
 N    0.5781535671   -6.2465153314   -0.0391919633
 H    0.8007945949    1.6724854141   -0.9949468196
 H   -0.9562629119    1.7265767947   -0.8097581750
 H    0.0886693480    2.0108986209    0.5876202531
 H    0.7200411661   -3.1373569152   -0.0507274983
 H    0.1827219259   -2.7847978930    1.5765172064
 H   -2.2362679507   -2.8265499981    0.7831717948
 H   -2.7482749239   -3.6175300022   -1.5425898713
 H   -0.9614101686   -3.6737659851   -1.9155358286
 H   -2.4214955864   -5.2356774258    0.3468631313