19

 C    0.1514809196    1.1173265026    0.2736708131
 O   -0.4439472712   -0.0135572188   -0.3351157516
 C    0.3576064674   -0.5736554207   -1.3267879590
 C    1.4257421558   -1.5676248360   -1.0241347307
 C    1.0209171479   -2.4010006328    0.2009099132
 C   -0.2269562326   -2.8388165376   -0.5992029639
 O   -1.0284105392   -3.7165416047   -0.4454335217
 C    0.1003978565   -1.9799726163   -1.7917611855
 C   -0.1990013417   -2.3481727805   -3.2171220674
 H    1.1063465096    0.8640664186    0.7559234745
 H    0.3345881684    1.9182663041   -0.4585184993
 H   -0.5487272585    1.4802090020    1.0287859284
 H    0.5841501616    0.1146531945   -2.1455921168
 H    2.4238885178   -1.5127526075   -1.4403567754
 H    1.6700807446   -3.2608520501    0.3876701265
 H    0.8519173647   -1.8597359093    1.1341526274
 H   -1.2716117815   -2.2564651131   -3.4183254025
 H    0.3307048074   -1.6957149987   -3.9178542302
 H    0.0896448933   -3.3829279358   -3.4261369590