16

 O    0.0770949708    1.3987301604    0.0332826874
 C    0.0159620340    0.0059579511    0.0542309661
 C   -1.4143206573   -0.4969472519    0.0490174524
 O   -2.3347202131    0.2943953878    0.0880611865
 C   -1.7196227091   -1.9972703839    0.0287958155
 O   -3.0705339056   -2.2189298974    0.2948371455
 C   -1.3284327585   -2.6004600224   -1.3512198133
 C   -1.5814507850   -4.0372911366   -1.3976436755
 N   -1.7586476440   -5.1779457218   -1.4335419976
 H   -0.8381454591    1.7091987494    0.1021831114
 H    0.5552934605   -0.4187301656   -0.8071354610
 H    0.5046336817   -0.4107945144    0.9526417998
 H   -1.1062130486   -2.4871786277    0.7991553692
 H   -3.5025372533   -1.3515277393    0.2480999161
 H   -1.9163088205   -2.1077195063   -2.1333882543
 H   -0.2688550229   -2.4271539915   -1.5683183783