18

 O    0.0037942074   -0.1068865655    0.0382326623
 C   -0.0141179057    1.1092477683   -0.0801998403
 N   -1.2189611598    1.7749304702   -0.1623435556
 C   -1.5554640586    3.1832130290   -0.0963550261
 C   -0.7807467048    4.0192149227    0.9132703630
 N   -0.0177534177    3.3290156508    1.9603832411
 C    0.6991547456    4.0391579816    0.8942125374
 C    1.4698623336    3.2239806949   -0.1353144984
 N    1.1698399451    1.8071197482   -0.1930986330
 H   -1.9683854446    1.1280079120    0.0170236730
 H   -1.4499294230    3.6676883307   -1.0801978368
 H   -2.6213369220    3.2314085314    0.1470748585
 H   -1.2809433913    4.9515651322    1.1710363421
 H   -0.0138532554    3.8642017027    2.8232622014
 H    1.1805208024    4.9847355620    1.1393383208
 H    1.3260118154    3.7050904416   -1.1159473616
 H    2.5399644887    3.3009642310    0.0806037186
 H    1.9407902246    1.1806869162   -0.0332998763