17

 C   -0.0212893945    1.4631884378    0.0784458957
 C   -0.0003328654   -0.0276843600   -0.0219310963
 C   -0.0372008895   -0.7705339618   -1.1506809131
 C    0.0018905871   -2.1837682230   -0.8010116108
 C    0.0042990554   -3.4869247716   -1.2433403690
 N    0.0677323070   -4.2518589867   -0.1095674629
 N    0.1054523778   -3.5331934057    1.0426923144
 C    0.0654998604   -2.2865074258    0.6099421298
 C    0.0692248694   -0.9165569268    1.2230334372
 H    0.8739696304    1.8456345472    0.5861097622
 H   -0.0716700826    1.9276625698   -0.9102923443
 H   -0.8821391087    1.8158790237    0.6615782164
 H   -0.0880188651   -0.3671886840   -2.1546628212
 H   -0.0309702756   -3.9411530523   -2.2206068488
 H    0.0875555153   -5.2552457616   -0.0522626511
 H    0.9713618579   -0.7127219070    1.8141718924
 H   -0.7840826893   -0.7423854923    1.8911432495