15

 C    0.0391449396    1.5559752373    0.0114680851
 C    0.0383744785    0.0190654510    0.0048663001
 C   -1.4013796367   -0.5611890408    0.0673836404
 C   -2.1209661256   -0.1719050502    1.2725411140
 C   -2.6951835466    0.1544067080    2.2768038115
 C    0.7082093041   -0.4774335888   -1.2620724145
 O    1.7194480786   -1.1269084624   -1.3060677300
 H    1.0602891198    1.9466577077    0.0326014070
 H   -0.4592155550    1.9546671340   -0.8799698718
 H   -0.4943292668    1.9282237812    0.8895570829
 H    0.6153513087   -0.3625150316    0.8520882138
 H   -1.9627669636   -0.2314847187   -0.8177231009
 H   -1.3529197400   -1.6558485052    0.0114877640
 H   -3.2149967019    0.4343813767    3.1594583773
 H    0.1775158670   -0.1763894483   -2.1987469189