18

 C    0.0033052261    1.4164730575   -0.0453043316
 O   -0.0139184307    0.0102411258    0.0423345858
 C    0.5888541707   -0.5978972334   -1.0806921042
 C    0.5506107082   -2.0477031635   -0.9513849381
 C    0.5263614240   -3.2499387218   -0.8584453980
 C    0.5354122367   -4.6727338936   -0.8202376444
 C    1.1547207864   -5.4338621718   -1.9680779030
 N    0.0043560536   -5.2328750585    0.2111843988
 O    0.0836180685   -6.6233580417    0.1145667680
 H    1.0305208516    1.8114928542   -0.0971169554
 H   -0.5485973139    1.7790995808   -0.9272348671
 H   -0.4784796562    1.8006067715    0.8561965164
 H    0.0717432774   -0.2954706206   -2.0092778902
 H    1.6367078825   -0.2633751320   -1.1866797174
 H    1.9677723753   -6.0683583621   -1.6018417664
 H    0.4129785752   -6.0998184081   -2.4198537140
 H    1.5397539426   -4.7521900883   -2.7261788999
 H   -0.3403280880   -6.9072784041    0.9316366906