19

 C    0.0279027816    1.5743416337    0.0677256261
 C    0.1220936697    0.0649153434    0.0494987562
 O   -0.8314196775   -0.6002739966    0.8996393041
 C    0.5595747568   -0.6879133609    1.2413253978
 C    1.1717136650   -2.0707875737    1.0785854899
 O    2.4683378216   -2.0797782755    0.5052278304
 C    2.6600248413   -1.2424902080   -0.6371968159
 C    1.4918413898   -1.1690876056   -1.6021069977
 C    0.3445688199   -0.5673376408   -1.2889659872
 H    0.9544818851    2.0277714571   -0.2993665504
 H   -0.7891919944    1.9129295613   -0.5787579051
 H   -0.1674628503    1.9330216572    1.0816148908
 H    0.8402201138   -0.1216355266    2.1297350411
 H    1.2866658556   -2.5580022206    2.0518548194
 H    0.4673762551   -2.6653827370    0.4836504890
 H    2.9160239529   -0.2256992192   -0.3033448628
 H    3.5430399291   -1.6469815972   -1.1389591565
 H    1.6137193867   -1.6305440356   -2.5782457609
 H   -0.4741029619   -0.5085208456   -2.0030381484