12

 O    0.1267985200    1.3220759941    0.0457604664
 C    0.0815125026   -0.0199712831    0.0433435372
 N    0.0821082583   -0.7247569375   -1.0746222704
 N    0.0292840538   -2.0138692235   -0.6459654920
 C   -0.0037778962   -2.1256622382    0.6945807464
 C    0.0284182660   -0.8362169920    1.2111063958
 C    0.0126256835   -0.4310797269    2.5615100797
 C   -0.0006663662   -0.0800831539    3.7133909162
 H    0.1565600090    1.6093336053   -0.8757549711
 H    0.0189122864   -2.7510875015   -1.3284210077
 H   -0.0468504692   -3.0791834351    1.1958412311
 H   -0.0120790980    0.2365046624    4.7263191684