19

 C    0.0989988651    1.4203063853    0.1057305899
 C    0.0179377969   -0.0638558387    0.0071103540
 C    0.0087206536   -0.8756746584   -1.0516400725
 C   -0.0599701227   -2.2614455694   -0.4349149786
 C    1.0521903326   -2.1090131839    0.7398726237
 C   -0.0181491928   -1.0309650756    1.2221754517
 C   -1.1322717796   -0.6192285227    2.2190500563
 O   -2.1226376117   -1.1771996719    1.2664812727
 C   -1.0327276583   -2.0443756589    0.7962730681
 H    0.9488673905    1.7385268938    0.7231659215
 H    0.2129252444    1.8705344322   -0.8844382193
 H   -0.8013604234    1.8488854154    0.5628845551
 H    0.0490400010   -0.6410470715   -2.1059603822
 H   -0.0898912546   -3.1436074692   -1.0755008497
 H    1.1566780845   -2.9852871600    1.3850998291
 H    2.0251681347   -1.7392658376    0.4101230675
 H   -1.1504156718   -1.1743187634    3.1641640969
 H   -1.3054810848    0.4458255468    2.3940343438
 H   -1.0691163437   -2.9593817923    1.4010823021