14

 C   -0.0410253340    1.4845044184   -0.0327176275
 C    0.0000403915    0.0302183770   -0.0022720577
 C    0.0468633667   -1.1725627414    0.0442887957
 C    0.0706071959   -2.6268288707    0.0454849385
 C   -1.3713375731   -3.1818284594    0.0554431769
 O   -1.7157841188   -4.1091566305    0.7311485845
 C    0.7858312456   -3.1482986609   -1.2208564666
 O    1.5633284735   -4.0596644406   -1.2102404315
 H    0.9689533549    1.9075539786   -0.0527194009
 H   -0.5720652302    1.8463175616   -0.9195644988
 H   -0.5535835119    1.8834363528    0.8490815220
 H    0.5883123968   -3.0522537179    0.9094353041
 H   -2.0678066406   -2.6424272629   -0.6202513222
 H    0.5179996538   -2.6010180841   -2.1489396266