23

 C    0.6137426352    1.0457938822   -0.5166427947
 C    0.1584381422   -0.3621035086   -0.1283110883
 C   -1.3476660882   -0.4638629713    0.1198981201
 O   -2.0537065374   -0.1760542810   -1.0897372532
 C   -2.9461331249    0.9141375064   -1.0234714680
 C   -1.7534751298   -1.8679257297    0.5865404869
 O   -1.0382371965   -2.1660645217    1.7723902949
 C   -3.2537234817   -2.0054561184    0.8551105653
 O   -3.5288827559   -3.2693370323    1.4621177173
 H    1.6909567840    1.0712667682   -0.7071014789
 H    0.1051683951    1.3835378077   -1.4244210613
 H    0.4023880177    1.7681857512    0.2802384275
 H    0.4173731201   -1.0693872475   -0.9265639499
 H    0.6729301003   -0.7000033270    0.7761629349
 H   -1.6349900371    0.2526765090    0.9045092980
 H   -3.3906414794    1.0251450547   -2.0164927289
 H   -3.7556744837    0.7488299878   -0.2964224989
 H   -2.4348011428    1.8515618142   -0.7615503826
 H   -1.4830666784   -2.5779265709   -0.2183341881
 H   -1.5385726029   -2.8737836779    2.2009141615
 H   -3.5684464428   -1.2566661516    1.5899630754
 H   -3.8305137892   -1.8621334668   -0.0656381533
 H   -3.4334759537   -3.9477333867    0.7847094642