21

 C   -0.1023734020    0.9966542758   -0.5683676435
 O   -0.4789722632    0.0371138535    0.4113191431
 C   -1.2157093469   -0.9988968329   -0.0457429201
 N   -1.5452340451   -1.9217771262    0.7440417030
 C   -2.3702253911   -3.0342583390    0.2956839433
 C   -2.6002128483   -3.2227433108   -1.1988826403
 C   -1.4026843413   -3.6845108556   -2.0073671282
 C   -3.9549524078   -3.6448287850   -1.6401443795
 N   -3.4944595779   -2.2661167715   -1.8939813182
 H    0.4239268787    1.7897312611   -0.0357844684
 H    0.5692445062    0.5626482334   -1.3193152007
 H   -0.9773140989    1.4239813361   -1.0736010550
 H   -1.4775383188   -0.9278024650   -1.1092031556
 H   -1.9188092374   -3.9501289391    0.7004521841
 H   -3.3421075442   -2.9414987778    0.8014444574
 H   -1.1152453069   -4.7008408944   -1.7162102574
 H   -1.6415687265   -3.6823634448   -3.0736293913
 H   -0.5327847545   -3.0392476968   -1.8529626946
 H   -4.0626797664   -4.2599131210   -2.5296341624
 H   -4.7206504368   -3.8066211154   -0.8855813670
 H   -3.9235215011   -1.6436027547   -1.2121805388