16

 N   -0.0072434823    1.3356721476    0.0276757249
 C   -0.0256419507    0.0447057675    0.0322732979
 C    1.1861282365   -0.8085204897    0.0271867956
 N    1.2317182352   -2.1105639405    0.0309759476
 N    0.0262719355   -2.6739586699    0.0406143992
 C   -0.4941195567   -4.0403791001    0.0490958151
 C   -1.9210536891   -3.3711091492    0.0563172316
 C   -1.1840030892   -2.0393232166    0.0467686717
 C   -1.2864647372   -0.6968235347    0.0431978453
 H    0.9574726681    1.6746745557    0.0200631246
 H    2.1533620022   -0.3116753620    0.0194779544
 H   -0.2456875051   -4.6176443190   -0.8459862658
 H   -0.2339370178   -4.6108263956    0.9452373435
 H   -2.5243794672   -3.5739618575   -0.8299600207
 H   -2.5120074850   -3.5677388808    0.9523093587
 H   -2.2261319571   -0.1609809250    0.0479862563