12

 C    0.0184767062   -1.2079818885   -0.0038591330
 C    0.0022752460   -0.0042163803    0.0025090886
 C   -0.0170644653    1.4152381681    0.0104317632
 C   -1.2129132888    2.1483721421    0.0301418705
 N   -1.2393994209    3.4781153618    0.0376500454
 C   -0.0535055259    4.0904226870    0.0253269642
 N    1.1486237422    3.5108181813    0.0063616743
 C    1.1583687822    2.1808455438   -0.0009273074
 H    0.0323449880   -2.2700744423   -0.0092805920
 H   -2.1692876119    1.6317523203    0.0399390453
 H   -0.0683095854    5.1772341012    0.0314003591
 H    2.1284577335    1.6906081055   -0.0163711584