21

 C   -0.2232826180    1.4221849474   -0.6722863369
 C   -0.0866940237    0.1546623733    0.1798345592
 C   -1.3746522053   -0.6466282631    0.2226994396
 C   -1.6945925702   -1.6735509763   -0.8365247022
 C   -1.4448821396   -2.1131903324    0.5883349959
 C   -0.2235520671   -2.9161261410    0.9512415709
 O   -0.4862220232   -4.3248952275    0.8125690638
 C   -0.0583870554   -4.9368401850   -0.3047125367
 O   -0.2853959657   -6.0846173013   -0.5446196088
 H    0.7109207512    1.9916071394   -0.6879655018
 H   -0.4869439460    1.1740322242   -1.7054700282
 H   -1.0074525736    2.0781071056   -0.2788687919
 H    0.7295359188   -0.4587290366   -0.2193637289
 H    0.2089416204    0.4317732980    1.2002419100
 H   -2.2241473346   -0.0641854158    0.5735137620
 H   -2.7017969506   -1.7393796629   -1.2318261588
 H   -0.9185543018   -1.8854819406   -1.5671441459
 H   -2.3215647802   -2.4142291660    1.1550094153
 H    0.6413652133   -2.6409825683    0.3366651971
 H    0.0504323315   -2.7767552797    2.0008865748
 H    0.5343292897   -4.2682241816   -0.9607214886