22

 C    0.6662912619    0.0756195278    0.5770712716
 C   -0.4425805629    0.5937727624   -0.3393124901
 N   -1.6682584407   -0.1759326289   -0.1359325850
 C   -2.2839650621   -0.6304927087   -1.1254197167
 O   -2.0079657482   -0.5261834158   -2.4825220391
 C   -3.1510879063   -1.3695605507   -2.8156395838
 C   -3.5240471358   -1.4852595987   -1.3197253424
 C   -3.5236806281   -2.8705753414   -0.6734723162
 C   -3.7011250002   -2.8091619992    0.8468794807
 H    1.5688377052    0.6866640886    0.4750482356
 H    0.3436964349    0.1007064024    1.6219462476
 H    0.9241826851   -0.9587753326    0.3289317183
 H   -0.6608514258    1.6392540344   -0.0851462911
 H   -0.1093989227    0.5795289247   -1.3852946176
 H   -3.8548382341   -0.8387759332   -3.4615476823
 H   -2.8243937145   -2.2980330870   -3.2933252717
 H   -4.4415934273   -0.9452275626   -1.0647776099
 H   -4.3256720370   -3.4689959440   -1.1243577433
 H   -2.5818262852   -3.3776408817   -0.9181888429
 H   -2.9184381898   -2.1945890305    1.2993198003
 H   -4.6684016613   -2.3680464521    1.1121403921
 H   -3.6585690153   -3.8100962131    1.2866540758