19

 O   -0.0377803305    1.3471896269   -0.3242012103
 C   -0.0404721714   -0.0486188201   -0.0946848509
 C   -1.4414922673   -0.5368743415    0.0828890701
 C   -2.5576290701    0.1930679272    0.0124084901
 C   -3.7873897068   -0.6406516320    0.2267832140
 O   -4.5027439989   -0.9757643785   -0.9976087360
 C   -3.9382374858   -2.3029868886   -1.0008956240
 C   -3.2495042279   -2.0882619655    0.3654022457
 C   -1.7138141706   -1.9984511214    0.3895160915
 H    0.8715063683    1.6271284427   -0.4607406774
 H    0.4240311411   -0.5976760498   -0.9336452248
 H    0.5479827320   -0.3122423759    0.8030100693
 H   -2.5840988867    1.2552688564   -0.1925786223
 H   -4.4812153936   -0.2398209222    0.9744212999
 H   -4.7184768638   -3.0728728952   -1.0318241993
 H   -3.2502981066   -2.4609087885   -1.8433257398
 H   -3.6647981358   -2.6906842026    1.1732185947
 H   -1.2458026287   -2.6687720637   -0.3449232272
 H   -1.2996540670   -2.2830573276    1.3663278566