17

 C   -0.0940524389    1.5774970385    0.0012902548
 C    1.4479838935    1.4973349952   -0.0225826365
 C    1.2886880295    0.0459358721    0.8107665126
 O    1.7985089772   -1.0863226646    0.0545502699
 C    1.0044363568   -0.4785470090   -0.9956799123
 C    0.7099416490   -0.5921858345   -2.4909178974
 O    0.9491640499    0.8522791933   -2.5791728183
 C    1.7382056057    0.7916406992   -1.3386707966
 C   -0.0393915686    0.0477106301    0.0540395261
 H   -0.4789364609    1.9904754315    0.9374946134
 H   -0.5723696776    2.0577707898   -0.8531256584
 H    2.0822992522    2.3092909396    0.3266269457
 H    1.4608812939    0.0001681304    1.8838296023
 H    1.4493747819   -1.1595531060   -3.0696795104
 H   -0.3057322289   -0.8594337091   -2.7960263743
 H    2.7993171882    0.6670609954   -1.5712512973
 H   -0.8657049029   -0.6159866319    0.3050234268