14

 N    0.4608683463    0.9351445902   -0.7397838341
 C   -0.2418486471    0.1768166716    0.2870830312
 C    0.7144912361   -0.4494812066    1.2510468329
 C    2.0749271961   -0.5826098671    1.1924000172
 O    2.4791071636   -1.2457156003    2.3340253923
 C    1.3382667349   -1.4704501204    3.0041486638
 N    0.2674619242   -1.0266321768    2.4282523909
 C    3.0832486806   -0.2079043938    0.2812375312
 N    3.9479970740    0.0873339617   -0.4304633465
 H   -0.1612386621    1.1530184784   -1.5090855852
 H    0.8005523901    1.8172877445   -0.3712118986
 H   -0.9826145847    0.7442125980    0.8747003043
 H   -0.8048234588   -0.6281541470   -0.2029139727
 H    1.4233569867   -1.9900350124    3.9461410334