20

 C    0.0063956757    1.5630457137   -0.0857777833
 C   -0.0212225137    0.0457556561    0.1290513303
 C   -1.3982982829   -0.5606413047   -0.0104446614
 C   -2.1968765681   -0.5307578739   -1.3442899354
 C   -2.9433681788   -1.7728606728   -0.7725376946
 C   -1.6287312516   -2.0959396065   -0.0017511955
 N   -3.9586493714   -1.3182557281    0.1851905158
 C   -3.5094461437   -0.4585309885    1.0010983692
 O   -2.2416529313    0.0187569645    1.0267650643
 H    1.0199641639    1.9545154360    0.0389988250
 H   -0.3318390476    1.8270754293   -1.0932984945
 H   -0.6459701740    2.0679902893    0.6309663619
 H    0.6354255036   -0.4521436273   -0.5940721361
 H    0.3637509675   -0.1993202527    1.1267677090
 H   -2.7913630861    0.3560028071   -1.5720448849
 H   -1.5504522780   -0.7873433093   -2.1867536549
 H   -3.3657472685   -2.5102278910   -1.4538273495
 H   -0.8929006878   -2.6020282725   -0.6307127393
 H   -1.7162509659   -2.5952657527    0.9653783003
 H   -4.1219514113   -0.0122285060    1.7804497035