23

 C   -0.0964425882    1.5601023293   -0.0420551621
 C    1.2724650924    0.9262264575   -0.0316086694
 C    0.0415930702    0.0546104292    0.0192700474
 C   -0.3165429935   -0.6489743028    1.3206343305
 C    0.6280057271   -1.7914121172    1.7563645518
 C    1.1864097920   -2.6949099605    0.6355509782
 C    0.2915948699   -2.9071343594   -0.5921452871
 O    0.3970765095   -1.8544930188   -1.5361476499
 C   -0.3535884319   -0.6919457791   -1.2459466781
 H   -0.4310656722    2.0761190830    0.8517323456
 H   -0.4455925348    2.0084541765   -0.9667120271
 H    1.8532773804    0.9386451221   -0.9478720669
 H    1.8685223776    1.0192109458    0.8704298243
 H   -0.3603247430    0.0837812728    2.1346853930
 H   -1.3384602693   -1.0384843532    1.2207657480
 H    1.4786252482   -1.3661350578    2.3014302729
 H    0.0878603668   -2.4055678907    2.4869688382
 H    2.1260836323   -2.2810308163    0.2537487343
 H    1.4330646933   -3.6739966387    1.0638953070
 H    0.6212902718   -3.8041111208   -1.1270952265
 H   -0.7614209773   -3.0663279312   -0.3044719110
 H   -1.4271275399   -0.9455886998   -1.1848524488
 H   -0.2163981413   -0.0430654200   -2.1172092443