20

 C    0.1244212548    1.5532595267   -0.1183560498
 C   -0.0130767746    0.0469246993    0.1047068598
 O    0.3551138022   -0.5919474114   -1.1314571853
 C    1.0334125575   -1.7737926081   -1.1816582720
 N    0.9394224721   -2.5377322028   -2.1877444054
 C    2.0053745476   -2.1066592948   -0.0656484488
 C    3.4525514123   -1.8002528803   -0.5175524730
 C    1.6708337934   -1.4023028374    1.2164010675
 C    0.7658761450   -0.4345037652    1.2884206780
 H    1.1735714876    1.8215033274   -0.2710788791
 H   -0.4481108966    1.8555672557   -0.9989693196
 H   -0.2546244038    2.1021690745    0.7489785188
 H   -1.0791479222   -0.1820445739    0.2636078505
 H    0.2684057954   -2.1533240754   -2.8561797857
 H    1.9351986209   -3.1896956010    0.0854465183
 H    3.5708593642   -0.7351099897   -0.7390034401
 H    4.1624025737   -2.0626467507    0.2734964390
 H    3.6925019975   -2.3751648447   -1.4142712726
 H    2.2218193735   -1.7097579613    2.1016280010
 H    0.5418338494    0.0626051831    2.2282243085