17

 O   -0.1421932309    1.3558171978    0.0737938245
 C    0.0309226293   -0.0237692893    0.0193780338
 C    1.1304139586   -0.7412381129    0.8291946406
 C    1.0855175899   -1.8533068783   -0.2566502677
 O    0.0952519369   -2.8173318331    0.0674815750
 C   -1.1346015007   -2.2223615518   -0.2579008939
 C   -1.0531583389   -1.3039139962   -1.4290110522
 C   -1.3370500612   -0.7396269100   -0.0193619209
 C    0.4050710407   -0.8375057569   -1.2718155724
 H    0.7249340495    1.7702428506    0.0035626410
 H    2.0725330962   -0.1814137888    0.7766378185
 H    0.9349188654   -1.0473044238    1.8596377700
 H    2.0091635433   -2.3682718774   -0.5204490142
 H   -1.9740520639   -2.8898860679   -0.1085511526
 H   -1.6573926598   -1.3443053582   -2.3252075333
 H   -2.2474079397   -0.3304741477    0.4030249586
 H    0.9832325553   -0.4330335161   -2.0983884049