23

 C    0.0290378074    1.5709256013   -0.1094374069
 C   -0.0061805185    0.0409304286   -0.0970871008
 C   -1.4224682016   -0.5323905607    0.0594766020
 O   -2.2871161364   -0.0953231348   -0.9869859516
 C   -1.4132257040   -2.0381558363    0.1896288248
 C   -1.5308533662   -2.9816765287   -0.9772001948
 C   -2.5696948691   -3.0361000601    0.1132921824
 C   -2.0226161519   -3.8049123238    1.3204022986
 C   -0.8311605911   -2.7936539012    1.3974151657
 H    1.0443016241    1.9438421392   -0.2746212314
 H   -0.6165341582    1.9676339447   -0.8976769916
 H   -0.3265809854    1.9790003289    0.8431543658
 H    0.4270836703   -0.3579339319   -1.0261274085
 H    0.6205416854   -0.3449059905    0.7164529804
 H   -1.8688500490   -0.1109075170    0.9716636528
 H   -1.8505816664   -0.2946273770   -1.8226769846
 H   -1.8817713813   -2.5420018550   -1.9054230418
 H   -0.8214646292   -3.7967320960   -1.1096877683
 H   -3.6134023100   -2.8398860796   -0.1003131277
 H   -2.6683695743   -3.7474286892    2.1994163046
 H   -1.7677070299   -4.8557424047    1.1455472601
 H    0.1780425339   -3.2004163649    1.2731563513
 H   -0.8536426587   -2.2011082713    2.3163925496