20

 C    0.1780872221    1.6625012210   -0.0935615369
 C   -0.0054685678    0.1397102116    0.0323727899
 C    0.4688957979   -0.5195738353   -1.2589878629
 O    0.0571237489   -1.5646180470   -1.6924879022
 C    0.6960940126   -0.4730782823    1.2558082752
 C    0.4371404040    0.2376942076    2.5862143651
 O    1.1523626297   -0.3546977856    3.6450713969
 C    0.9662613360   -1.9299039897    1.3004970614
 N    2.0877707953   -0.9699489400    1.1772159279
 H    1.2382869936    1.9375454666   -0.0832934903
 H   -0.2521200039    2.0223600819   -1.0340794436
 H   -0.3170839338    2.1991489770    0.7175522101
 H   -1.0729784134   -0.0979394187    0.1230290008
 H    1.2556360394    0.0506647775   -1.8080765764
 H    0.6966916100    1.3030076854    2.4889654535
 H   -0.6292590295    0.1785322169    2.8361434522
 H    2.0453030066   -0.4989261239    3.2974947524
 H    0.9231820832   -2.4369948180    2.2582576058
 H    0.7017045956   -2.5270685094    0.4345915169
 H    2.4527536834   -0.9564391755    0.2287053141