18

 O   -0.5571376771    1.3026548224   -0.0511141796
 C   -0.0723569591   -0.0298171067    0.1006089329
 C   -1.2477249692   -1.0018539640    0.2510154520
 N   -1.5562859754   -1.5476093651   -1.0824128752
 C   -2.2905281182   -0.6620005346   -2.0384372595
 C   -1.1805845339   -0.8935985222   -3.0950806127
 C   -0.3385312417   -1.4608119875   -1.9237800957
 C    0.5794783177   -0.4448274332   -1.2436879887
 O    1.5884152337    0.0413301523   -1.6884777701
 H    0.1830465857    1.8381348996   -0.3644470192
 H    0.6531612897   -0.0949751209    0.9226544356
 H   -0.9614297013   -1.8272907260    0.9138743239
 H   -2.1228112812   -0.5101295921    0.6824563450
 H   -3.2946059402   -1.0205576567   -2.2823567137
 H   -2.3459475184    0.3810023052   -1.7072958778
 H   -1.4318562022   -1.6576157983   -3.8316767755
 H   -0.7756974870   -0.0179018517   -3.6032717583
 H    0.2017591581   -2.4000407705   -2.0937352533