13

 O   -0.0764785232    1.3035143105   -0.0908834563
 N    0.0345514890   -0.0840452564    0.0159284407
 C   -1.0997999860   -0.6410822473   -0.0145280515
 C   -2.5678783163   -0.2016869702   -0.0172158815
 C   -2.9049622187   -1.7058246957    0.1424779247
 O   -2.3441749497   -2.3908394355   -0.9760605063
 C   -1.4612869284   -2.0879713952    0.1186869236
 C   -4.0010868318   -2.2914121489    0.8465560223
 N   -4.9001760600   -2.7273852238    1.4282685378
 H    0.8426241349    1.5922936617   -0.0450418365
 H   -2.8150269898    0.4048123362    0.8577817215
 H   -2.9587222271    0.2636925730   -0.9232529243
 H   -0.9373296128   -2.9096906982    0.5888682757