23

 C   -0.0755988465    1.5639034606   -0.0447199348
 C    0.0029890817    0.0343894965    0.0039174882
 C    0.6791003685   -0.5937594079   -1.2392774601
 C    1.3206284256   -1.9143958464   -0.7542539160
 C    1.5576658806   -1.7342007178    0.7395943358
 C    2.2520475847   -0.4771231705    1.2144118110
 O    2.9304154812    0.3890586002    0.3435238021
 C    0.7487733301   -0.5314290966    1.2201191897
 C    0.0232842883   -0.5152928013    2.5469668673
 H    0.9272901528    1.9970597123   -0.0904391661
 H   -0.6356915928    1.8980338905   -0.9250307939
 H   -0.5824516629    1.9687355841    0.8380095337
 H   -1.0221696563   -0.3584003074    0.0744545024
 H   -0.0369705415   -0.7568459791   -2.0505398291
 H    1.4502958746    0.0823409120   -1.6124163096
 H    0.6365984203   -2.7585094681   -0.9001977332
 H    2.2353595483   -2.1543647881   -1.3093354949
 H    1.6583608153   -2.6244291433    1.3541278555
 H    2.7144272105   -0.5448547793    2.2007283400
 H    3.7353922519   -0.0528383194    0.0533634090
 H   -0.1907420549    0.5087554903    2.8749867216
 H   -0.9330226613   -1.0477204977    2.4784315931
 H    0.6134413018   -0.9947306336    3.3343705784