14

 O    0.0507324311    1.3467749455    0.2277137544
 C    0.0592387649    0.0123261643   -0.0018109378
 C    0.0549942274   -0.7687852627   -1.1120056362
 C    0.0708592856   -2.1458548296   -0.6551614987
 C    0.0728419707   -3.3405761612   -1.4551233283
 O    0.0611529531   -3.3916640440   -2.6695746855
 C    0.0841972721   -2.0995740255    0.7320312171
 O    0.1016072569   -3.0415963670    1.6935385938
 N    0.0770891455   -0.7975604995    1.1261577439
 H    0.0334002450    1.8003613634   -0.6208995726
 H    0.0424017497   -0.4547531384   -2.1426247140
 H    0.0867362585   -4.2921677028   -0.8600313370
 H    0.1049072784   -3.9108636941    1.2773779883
 H    0.0839025712   -0.4724395084    2.0785655326