14

 N    0.5821225688    0.3401539748   -0.8064269059
 C   -0.0378151356    0.0233861868    0.3583629172
 O    0.2746528941    0.4896975440    1.4364246993
 C   -1.1948624487   -0.9601979612    0.2869861407
 C   -1.8815304433   -1.5309411871   -0.8993990583
 O   -0.9513435730   -1.7005797266   -2.0081856143
 C   -0.2417652270   -2.6606379136   -1.2620031772
 O    0.6486745521   -3.3394448810   -1.6437020211
 C   -1.0849151110   -2.4728688832   -0.0321341014
 H    1.3676436950    0.9681910079   -0.7585809461
 H    0.3004111974   -0.0560188337   -1.6882156250
 H   -1.8498973826   -0.8104185535    1.1409379511
 H   -2.9328067578   -1.4961869876   -1.1474680530
 H   -1.3701664485   -3.2335752160    0.6787975837