21

 C   -0.1011926466    1.4257389327   -0.0628974733
 C    1.2909466777    0.8499164719    0.0349281552
 C    1.9467969651    0.6584919192    1.3924288303
 C    1.2112258867    1.0426805659    2.6535898980
 C    1.1537766319   -0.3833540063    2.1566042084
 C   -0.0030264466   -0.8185674438    1.2754862764
 C   -0.4339780713   -2.2650304171    1.2797238485
 C   -1.3391952437   -1.2098871652    1.8658506092
 C    0.0908866796   -0.0731265389   -0.0434037185
 H   -0.5459740651    1.9180893130    0.7940511136
 H   -0.3816889616    1.8704429532   -1.0124668628
 H    1.9543940466    0.9786335488   -0.8125415490
 H    3.0304933287    0.6645488542    1.4148038014
 H    1.8156494177    1.2290990252    3.5356569769
 H    0.3249606296    1.6638908915    2.5967380195
 H    1.6466170623   -1.1462767238    2.7510624626
 H   -0.7172691515   -2.7153719045    0.3336706753
 H    0.0686737176   -2.9447716707    1.9604371309
 H   -1.4483730184   -1.1720628877    2.9446820511
 H   -2.2353502248   -0.9423681211    1.3157895773
 H   -0.1411002339   -0.6244920867   -0.9492190211