16

 O   -0.0262888749    0.0390506978    0.0664894375
 C    0.0127759933    1.2385499988   -0.0252700956
 N   -1.0579674941    2.1307982646   -0.1297503138
 C   -0.4044159740    3.4606278565    0.0216921491
 C    0.7447791991    3.2903693430   -1.0228288581
 C    1.2073649968    2.2063831227    0.0010739551
 C    0.6895869466    3.1859313207    1.1130181616
 C   -1.3013344499    4.5854797422    0.0558056652
 C   -2.0357663073    5.5356887057    0.1002235241
 H   -1.9247212062    1.9321913700    0.3501746153
 H    0.4467388515    2.9722848368   -2.0229372869
 H    1.4124545358    4.1524167156   -1.0560131627
 H    2.1976478437    1.7606853969    0.0055771004
 H    1.3548701135    4.0353275463    1.2791058919
 H    0.3476048840    2.7634654025    2.0607014231
 H   -2.6858792379    6.3751860898    0.1324358635