16

 C   -0.0095631180    1.5151228080   -0.0015308206
 C    1.4226165459    2.0591159751    0.0558830426
 O    2.1213970790    1.6829829992    1.2562451486
 C    1.9375630029    0.3867743211    1.5638391950
 N    2.6637731479   -0.2576652439    2.4682607695
 N    2.1088043365   -1.4745890371    2.4439158643
 N    1.0975725340   -1.6627158299    1.6059011820
 C    0.9633592241   -0.4725184905    1.0206697599
 C   -0.0280727724   -0.0293029136   -0.0048787939
 H   -0.5617397081    1.8917532817    0.8669128330
 H   -0.4986388081    1.9124350696   -0.8963627829
 H    1.9990397195    1.7051929179   -0.8109760755
 H    1.4314198384    3.1507678239    0.0518833764
 H    2.4460692198   -2.2119159331    3.0389810165
 H   -1.0299306776   -0.4098291371    0.2158757016
 H    0.2411455362   -0.4088676113   -0.9988623466