17

 O    0.0764577072   -0.0187871049    0.0662731763
 C    0.0144614372    1.1804890813   -0.0136820334
 C   -1.2648149176    2.0249434829   -0.1456973391
 C   -0.8154431860    3.2594634116   -0.9267442177
 C   -1.3987301753    3.6029510400   -2.2470722225
 N   -1.6269679125    4.4674786881   -1.0708788761
 C    0.6586865537    3.4164309239   -0.6540295971
 N    0.9684969611    3.3183726813    0.7758889899
 C    1.1785378734    2.1282317528   -0.1045373188
 H   -2.0626266975    1.4512115627   -0.6202587211
 H   -1.5884968498    2.3064544341    0.8634688185
 H   -0.7815319140    4.0468450511   -3.0243757157
 H   -2.2143209815    2.9862977680   -2.6160548947
 H   -2.5594094055    4.3118210234   -0.6949509347
 H    1.2617089735    4.0499430880   -1.2954770689
 H    1.8790970374    3.7375088483    0.9525582887
 H    2.1775555964    1.7485348773   -0.2806098435