21

 C    0.7998596685    0.0438092384    1.2290884318
 N    0.0263527085   -0.0558089385   -0.0039175679
 C    0.8540178072   -0.2621280608   -1.1816967512
 C   -1.2012345035   -0.7887071231    0.1166680439
 C   -2.3049824441   -0.0023715038    0.8078567798
 C   -1.6360371122   -1.7474949032   -0.9455288898
 C   -1.2325245639   -2.3228558778    0.4067960618
 C   -0.0242906844   -3.0850938938    0.5029290943
 N    0.9494506546   -3.7073971688    0.5857257308
 H    1.5486298984    0.8348933215    1.1212620427
 H    0.1486395152    0.3176576466    2.0628015969
 H    1.3207487232   -0.8893172091    1.4933965264
 H    1.3383588980   -1.2517019725   -1.2331653479
 H    0.2648767686   -0.1114411286   -2.0899248747
 H    1.6481965179    0.4909838103   -1.1775680435
 H   -2.5200008278    0.9042961086    0.2347049116
 H   -3.2238933687   -0.5904126958    0.8879634996
 H   -2.0157309996    0.2991994621    1.8185706636
 H   -2.6894872629   -1.7832985013   -1.2004071486
 H   -0.9708987823   -1.9634614079   -1.7714867844
 H   -2.0254840505   -2.6763238723    1.0570735049