19

 C   -0.0247236195    1.5571732021    0.0089881103
 C    1.5151141359    1.7493511544   -0.0035597729
 C    1.9476330926    0.8972145385    1.2148915993
 C    2.3903400175   -0.4664019687    0.7347885283
 C    2.3771081628   -0.4591305514   -0.7783474811
 C    1.9261734122    0.9089924773   -1.2375195194
 C    0.9502155962   -0.2547317751   -1.2345673425
 C    0.0541883548    0.0073678345    0.0008565641
 C    0.9716652660   -0.2665013689    1.2178449433
 H   -0.5017574265    1.9595239697    0.9093798113
 H   -0.5174053206    1.9681107200   -0.8790138339
 H    1.8826199222    2.7754077098   -0.0018482098
 H    2.3229970111    1.3511685422    2.1242915423
 H    3.1051225160   -1.0644623546    1.2872532199
 H    3.0820689423   -1.0517951746   -1.3489493470
 H    2.2856003279    1.3716902896   -2.1489489881
 H    0.5549170311   -0.6919660826   -2.1437129568
 H   -0.8921738590   -0.5332075854    0.0065392196
 H    0.5922933971   -0.7124690869    2.1295304131