19

 C   -0.1159265505    1.5706854313    0.0699336160
 C   -0.0181688473    0.0391485428    0.0283257294
 C    1.1410916656   -0.4879776089   -0.8936619869
 C    2.0084007473   -0.7766494288    0.3654381141
 C    0.7623173782   -0.5753203619    1.2313109846
 C    0.5744347774   -0.2837230995    2.6669810380
 N    0.2610804919   -1.6163193022    2.1131091404
 C   -1.3274600627   -0.5611947946   -0.1918599001
 N   -2.3642767332   -1.0594184911   -0.3173167493
 H    0.8716089663    1.9997882667    0.2613471252
 H   -0.4840937340    1.9613037581   -0.8832729779
 H   -0.7938105527    1.9031331110    0.8607303204
 H    0.8618138074   -1.3940367319   -1.4325605079
 H    1.5215114381    0.2481367358   -1.6040676933
 H    2.4502530346   -1.7718613235    0.4302338299
 H    2.7865705427   -0.0283254569    0.5378254284
 H    1.4317529748   -0.2538685187    3.3346929721
 H   -0.2461693522    0.3702292014    2.9537562902
 H   -0.7449613718   -1.7349978491    2.0017265766