16

 C   -0.0198722899    1.5208739755   -0.0172064042
 C    1.5088086408    1.5341653384   -0.0979408474
 O    1.9973154437    0.8249252408    1.0529983103
 C    1.5774320524    0.0683378086   -0.0870215175
 C    0.0396799328   -0.0526290929    0.0218816095
 C   -0.5373919896   -0.8151174174    1.2346327443
 O   -1.3493469399   -1.8603000375    0.6392554220
 C   -1.2829855640   -1.6404771998   -0.6910004334
 N   -0.5766995180   -0.6888069648   -1.1459927635
 H   -0.4534431903    2.0222417934    0.8523063725
 H   -0.5077345332    1.8561777236   -0.9342892509
 H    2.1701816231    2.2666854623   -0.5434134537
 H    2.2780796782   -0.6299301127   -0.5302138733
 H    0.2286318876   -1.2791975408    1.8598324755
 H   -1.1872197979   -0.1995003512    1.8627625468
 H   -1.8660122558   -2.3312939956   -1.2901728472