18

 C   -0.8480397608    0.5773238686   -0.4804583247
 C    0.4451685804    0.3700854563    0.3146905752
 N    0.5024210147   -0.9632882912    0.9050560640
 C    0.1508598690   -1.1132842660    2.1043977221
 N    0.1372106519   -2.3053234713    2.8184490836
 C   -0.2808952213   -2.0387018259    4.0929851831
 C   -0.4130171004   -3.0641794914    5.1622760817
 N   -0.5530483877   -0.7879664662    4.2660418590
 O   -0.2929659885   -0.1710893460    3.0033020624
 H   -1.7200024680    0.5418708009    0.1802138591
 H   -0.8404086609    1.5496816348   -0.9840456510
 H   -0.9628056742   -0.2042335937   -1.2374798670
 H    1.3011794773    0.4633281032   -0.3635310598
 H    0.5437819321    1.1618997478    1.0696826884
 H    0.4329514832   -3.1841867218    2.4329304718
 H    0.5495806289   -3.5460338950    5.3625625837
 H   -0.7658748696   -2.5844485056    6.0756984298
 H   -1.1258294062   -3.8423821675    4.8705404685