21

 C   -0.0673086776    1.5503088210   -0.0082398150
 C    0.0915036530    0.0322685548    0.0039433033
 C    1.0288427705   -0.6183599134   -1.0435334678
 C    2.4093615961    0.0151186172   -0.7367856686
 C    2.3200228711   -0.7727334481    0.5833583014
 C    3.4639779318   -1.0391557843    1.5257575825
 C    1.4891557401   -1.8629446144   -0.1363537893
 O    0.5872079771   -2.0206110204    0.9623982468
 C    0.8555823293   -0.6014940439    1.1881241721
 H    0.8719084275    2.0817433343    0.1657739228
 H   -0.4712883840    1.8951814511   -0.9659990142
 H   -0.7662085021    1.8627883824    0.7752564517
 H   -0.8984329701   -0.4330190994   -0.0312611948
 H    0.6639963008   -0.7364733605   -2.0628266450
 H    3.2007324034   -0.4076155978   -1.3649888311
 H    2.5059698512    1.1028090255   -0.7307704651
 H    3.7567439213   -0.1305503034    2.0649361821
 H    3.1824679444   -1.7940981185    2.2673920566
 H    4.3458084685   -1.4036464156    0.9876818270
 H    1.8583361255   -2.7824236803   -0.5903102018
 H    0.6629649024   -0.2731908962    2.2103075865