22

 C    0.2821255233    1.5369408474    0.1204811116
 C    0.0135542760    0.0268951514   -0.0031557913
 C    0.7226699960   -0.7124956289    1.1475721104
 C   -1.4992029631   -0.2525778398    0.0693870511
 C    0.5416911883   -0.5295304702   -1.3422354531
 C    0.0006369494    0.0991891506   -2.6576977634
 N    1.1906369812    0.5669426761   -3.3901348102
 C    2.1754653240    0.3022903657   -2.6399956128
 O    1.9809687937   -0.3043188607   -1.4465372938
 H    1.3528752451    1.7498926734    0.0605450489
 H   -0.2236796165    2.1131108286   -0.6606428380
 H   -0.0809913198    1.9056661243    1.0852416276
 H    0.3622650006   -0.3520146150    2.1167287404
 H    0.5328669627   -1.7907917505    1.1011312349
 H    1.8039548146   -0.5584633037    1.1052618142
 H   -2.0529702632    0.2777796946   -0.7120007516
 H   -1.7121859632   -1.3227866830   -0.0328477214
 H   -1.8985849252    0.0735231816    1.0350435564
 H    0.4033638414   -1.6170915053   -1.3420741399
 H   -0.5488829146   -0.6257492393   -3.2655731818
 H   -0.6721406556    0.9446068989   -2.4804671767
 H    3.2133840747    0.5239897037   -2.8641525916