25

 C   -0.6011425426    1.8764564487   -0.1790337067
 C   -0.2787241693    0.4030557453    0.0152620317
 O   -1.4879226272   -0.3268824429   -0.1374247565
 C   -1.4294529426   -1.7709533498   -0.1331343993
 C   -0.5272347075   -2.3282939812    0.9717069529
 C   -2.8942714698   -2.2166507798    0.0429741230
 C   -3.5790345661   -1.7140564641    1.3164178931
 C   -0.9149739729   -2.2151517392   -1.5201426744
 O   -1.6340843554   -1.5952651754   -2.5657587820
 H    0.2982387704    2.4838297463   -0.0397448796
 H   -0.9905321203    2.0619509565   -1.1845502305
 H   -1.3553517470    2.2006468090    0.5436260632
 H    0.4768790917    0.0807622823   -0.7166377195
 H    0.1459068882    0.2405652009    1.0155633804
 H   -0.8041060027   -1.9293968145    1.9509754034
 H   -0.6258110866   -3.4175008071    1.0106651841
 H    0.5276523332   -2.0992651376    0.7950787859
 H   -3.4463199529   -1.8711333621   -0.8361874789
 H   -2.9166826003   -3.3127982056    0.0099901223
 H   -4.6361420987   -1.9969419103    1.3176374239
 H   -3.1285598615   -2.1343214817    2.2215618566
 H   -3.5169379519   -0.6251552149    1.3817329903
 H    0.1636229176   -1.9990546086   -1.5988193402
 H   -1.0350826958   -3.2983665307   -1.6325235549
 H   -1.7856688898   -0.6895606436   -2.2642143983