24

 C   -0.1167950475    1.5483419002   -0.5051094430
 C   -0.0500932988    0.1156123199    0.0306503425
 C   -1.4022667690   -0.6035494339   -0.0034427799
 C   -1.3412161402   -2.0391326302    0.5351991101
 C   -2.6902323844   -2.7217987423    0.4879729207
 N   -3.1026666846   -3.3252204885   -0.7938836222
 C   -2.9212449883   -4.1891615954    0.3929854435
 C   -1.8409924659   -5.2363581177    0.2462767276
 O   -2.2097074905   -6.2052239051   -0.7217833773
 H    0.8627248801    2.0353154327   -0.4685861820
 H   -0.4589333751    1.5658658725   -1.5458546221
 H   -0.8137353559    2.1578244879    0.0810351087
 H    0.6799551014   -0.4607645900   -0.5528856177
 H    0.3287744166    0.1267198947    1.0615180988
 H   -2.1353255027   -0.0261264837    0.5778735923
 H   -1.7805848592   -0.6297031641   -1.0336295263
 H   -0.6159587324   -2.6121700611   -0.0506481287
 H   -0.9793139998   -2.0305877530    1.5725096535
 H   -3.4657977069   -2.1779449213    1.0294949367
 H   -4.0898618514   -3.1611805275   -0.9680835936
 H   -3.8295023637   -4.5632301232    0.8637522703
 H   -0.8815372785   -4.7668846146   -0.0102428547
 H   -1.7052886077   -5.7760297139    1.1896572408
 H   -2.4153425658   -5.7050417724   -1.5208981880