23

 C    0.6908749109    1.7484801599   -0.2825465722
 C    0.0499127099    0.3689039357   -0.0317516826
 C    0.2802437643   -0.5793462952   -1.2255017355
 C    0.5385919426   -0.2227358323    1.2146915765
 C    0.9615835084   -0.7050150389    2.2364068738
 C    1.4478293135   -1.3136070519    3.4581058777
 C    0.4321916379   -1.9948809537    4.4344451879
 C    1.4870568120   -3.1009312554    4.6985003095
 C    2.2023406065   -2.6827130930    3.3872543419
 H    1.7746014475    1.6527498511   -0.4021950589
 H    0.2830817642    2.1983375415   -1.1937486511
 H    0.5019625484    2.4272758753    0.5532319491
 H   -1.0346102212    0.5191472962    0.0689339173
 H    1.3500556938   -0.7543490855   -1.3765768199
 H   -0.1999474974   -1.5469215488   -1.0573352977
 H   -0.1293838848   -0.1437117449   -2.1427439714
 H    2.0582132525   -0.5954682077    4.0181409396
 H    0.0783601642   -1.4006645011    5.2798091055
 H   -0.4308629589   -2.3784884303    3.8846085452
 H    2.0950297165   -2.8793159465    5.5805931165
 H    1.1313873128   -4.1305393915    4.7735808420
 H    1.8572438201   -3.2676256622    2.5310112428
 H    3.2940359661   -2.6502769806    3.3775088241