19

 C   -0.1356429249    1.4449228002    0.1113470750
 C   -0.0631678948   -0.0837499648    0.0541582021
 C    0.8647310054   -0.6405808108    1.1204620711
 O    0.4111628970   -0.3590112581    2.4716333835
 C    0.2120915521   -1.7554362250    2.7620260352
 C    0.8082969066   -2.1633479590    1.4067912258
 O   -0.0678922878   -2.9177081959    0.5828253885
 C    0.4212168765   -3.9937255504   -0.0697163551
 O   -0.2466514690   -4.6667826822   -0.7923935336
 H    0.8436629900    1.8981043188   -0.0789994133
 H   -0.8345665733    1.8317640842   -0.6354706966
 H   -0.4719184269    1.7741007581    1.0984460198
 H   -1.0596584036   -0.5182778664    0.1825597344
 H    0.2990172507   -0.4157344042   -0.9272781576
 H    1.8843127948   -0.2564609079    0.9774596510
 H    0.7600085023   -2.0780114456    3.6544261280
 H   -0.8471702460   -2.0196501443    2.8654274269
 H    1.7864486430   -2.6511364026    1.4583961435
 H    1.4926063879   -4.1735227942    0.1465909413