23

 C    0.0564453623    1.5315720366    0.0750591889
 C    0.0124123826    0.0147517820   -0.0307782973
 C    0.7584848716   -0.5134983990   -1.2551769887
 O    0.8204578412   -1.9298130196   -1.2380858920
 C    1.4827319857   -2.3869607095   -0.0717449573
 C    0.7527784084   -1.9355261874    1.2037814210
 C   -0.6147628459   -2.6252980460    1.3267161806
 C    1.6135396301   -2.2031172587    2.4358767541
 O    0.6049140576   -0.5045295893    1.1574366759
 H    1.0915525476    1.8830208343    0.1279335250
 H   -0.4280149315    1.9950641223   -0.7901015915
 H   -0.4611121083    1.8605771827    0.9798274872
 H   -1.0356985083   -0.3165439074   -0.0996134827
 H    0.2440824897   -0.2308971138   -2.1787473448
 H    1.7770527592   -0.0887169137   -1.2736229000
 H    1.5147791185   -3.4788192335   -0.1371770845
 H    2.5168498649   -2.0050698681   -0.0507225831
 H   -0.4856504833   -3.6868856348    1.5606305023
 H   -1.1952877765   -2.1637751650    2.1306091801
 H   -1.1822132743   -2.5588681785    0.3956937733
 H    2.5586832667   -1.6574328482    2.3665724268
 H    1.0935451929   -1.8693284022    3.3383049419
 H    1.8295060792   -3.2713374432    2.5368213450