23

 C    0.2985455007    1.6808326519   -0.3532508256
 C    0.0214531919    0.2212867149    0.0270313851
 C    0.5775379836   -0.7677796796   -1.0179541923
 C    2.0458390203   -0.9295098623   -0.5830178404
 O    2.1044903517   -0.5433027886    0.7919167626
 C    0.8016020254   -0.2461227728    1.2724283408
 C    0.7914214059    0.6364120835    2.5424007733
 C   -0.3037733819   -0.2861595427    3.1418662686
 C    0.0862009993   -1.3650807186    2.0973508739
 H    1.3734327099    1.8763053166   -0.4244995638
 H   -0.1530912624    1.9187832548   -1.3219001361
 H   -0.1163046612    2.3763104760    0.3820357714
 H   -1.0553495492    0.0816745411    0.1659402114
 H    0.0524096774   -1.7254853872   -0.9501710008
 H    0.4784645623   -0.4063875648   -2.0447291945
 H    2.4004879104   -1.9614707198   -0.6959082287
 H    2.7209308531   -0.2806544798   -1.1554064733
 H    1.7442287458    0.5258303081    3.0666259853
 H    0.5740898924    1.7008385992    2.4313568057
 H   -0.2088485176   -0.5532562621    4.1959987747
 H   -1.3104520238    0.1069685220    2.9748880332
 H   -0.7163826813   -1.9275141275    1.6111319539
 H    0.8262473472   -2.0656665120    2.4927884758