17

 C    0.0042030112    1.4424765477    0.1291468773
 N   -0.0041889464    0.0042521491    0.0650656724
 C   -1.0915489761   -0.9720786512    0.0004836620
 C   -0.0029634574   -2.0868803954   -0.0108820299
 C    0.0466241529   -2.9806636070   -1.2562438089
 C    1.1604781022   -3.9278242894   -1.2326247941
 N    2.0211593599   -4.6976869602   -1.2094605119
 C    1.0157717730   -0.9143604832    0.0367918899
 O    2.2120149559   -0.8003978800    0.0354310829
 H    1.0476748787    1.7652281855    0.1527008412
 H   -0.4842189165    1.8869222809   -0.7465002919
 H   -0.5002589428    1.8078765790    1.0318103310
 H   -1.7532125463   -0.9702918933    0.8736976797
 H   -1.6970139327   -0.9048990738   -0.9121325644
 H    0.0116307240   -2.6921574447    0.8980118277
 H   -0.8836914748   -3.5548160047   -1.3403106056
 H    0.1249243050   -2.3667375694   -2.1611406073