18

 C   -0.1494792831    1.5277928106    0.1094920312
 C    0.1207123101    0.0271202099    0.0083121307
 N    0.7394386242   -0.5072997424    1.2087962592
 C    0.2552667297   -1.3766396919    2.1082137902
 N    1.1343606463   -1.5912197662    3.0762154662
 C    2.1689044600   -0.7952881023    2.6971072115
 O    3.3120646084   -0.6771269555    3.3761059328
 C    3.4099944894   -1.4574052454    4.5653123633
 N    1.9921693412   -0.1121497195    1.5741132502
 H    0.7827749587    2.0661304032    0.2926767855
 H   -0.5882741685    1.8916823816   -0.8241283883
 H   -0.8425121015    1.7459832385    0.9272305251
 H   -0.8069136015   -0.5325006635   -0.1446080058
 H    0.7835280597   -0.1864634784   -0.8361794757
 H   -0.7228630668   -1.8267290776    2.0237890592
 H    3.3238149358   -2.5258071934    4.3446708802
 H    4.3942269041   -1.2377193072    4.9809037368
 H    2.6288704940   -1.1850885803    5.2817510078