19

 O   -0.1178226309    1.4246147507   -0.0046864044
 C    0.0240775592    0.0618314412   -0.0151561808
 C    0.0655728444   -0.9884778057    1.0669118261
 C   -1.0396488352   -0.9880854850   -0.0350963394
 C   -0.4102099805   -1.7520681479   -1.2076355216
 C   -0.1324968153   -3.2383758980   -0.9460064872
 C    0.9801391700   -3.2329851291    0.1509168132
 C    1.2356143230   -1.7437591544    0.4220580771
 C    0.8900303384   -0.9473169631   -0.8784125866
 H    0.6465068123    1.8081517739    0.4402877160
 H   -0.2057453307   -0.9082046157    2.1123157942
 H   -2.0828183394   -0.8921895555    0.2381699674
 H   -0.8700455046   -1.5218799420   -2.1706194554
 H   -1.0358160759   -3.7665175614   -0.6246637118
 H    0.2192972675   -3.7358072674   -1.8562306696
 H    0.6766156119   -3.7619026312    1.0599029675
 H    1.8892308220   -3.7237881473   -0.2131675290
 H    2.2041649073   -1.5112855436    0.8706247893
 H    1.6363878065   -0.7126605586   -1.6347334251