20

 C   -0.0937981502    1.5712100513    0.0949986278
 C    0.0299603690    0.0635682421    0.0593015502
 C   -1.2298790570   -0.8131873099    0.2753466399
 C   -0.3984801370   -1.7565495271    1.1902871021
 C    0.7654286762   -0.7184262196    1.1938532018
 C    2.0932026896   -1.1468575584    0.5846272803
 C    1.8418977978   -1.0596822519   -0.9092576173
 N    2.5655577944   -1.5739878625   -1.8070833015
 O    0.7131659051   -0.3255796762   -1.1523546324
 H    0.8939136830    2.0431490741    0.0748264007
 H   -0.6598202568    1.9316196948   -0.7700543944
 H   -0.6130603043    1.8921782854    1.0030463766
 H   -2.0140224746   -0.2769412655    0.8164849400
 H   -1.6553806798   -1.2416185798   -0.6340123171
 H   -0.8330342449   -1.9865502644    2.1647301010
 H   -0.1217063923   -2.6973935893    0.7072781296
 H    0.8636255884   -0.1720773973    2.1327875494
 H    2.9042798785   -0.4588758942    0.8486830140
 H    2.4165385030   -2.1521044935    0.8622038716
 H    2.1900243918   -1.3603809683   -2.7328887022