13

 N   -0.0996151582    1.5055016955    0.1113354964
 C   -0.0446234055    0.1070980765   -0.0380600396
 C   -1.1281024801   -0.9475044045   -0.1126853459
 O   -0.3660794272   -1.7412991521   -1.0449162752
 C    0.6268207214   -0.7582083460   -1.1035043059
 O    1.5520739181   -0.6982260903   -1.8376458117
 C   -0.3694338424   -0.8073577616    1.1703113288
 C    0.5225623210   -1.8185697749    1.6733463890
 N    1.2378576597   -2.6210225260    2.0976933313
 H    0.7325143508    1.8660769105    0.5668419417
 H   -0.1977971836    1.9740689374   -0.7832713301
 H   -2.1985068688   -0.8893269440   -0.2456905225
 H   -0.8943119951   -0.2416517203    1.9361650935