19

 C   -0.1204044630    1.5986168414   -0.1069635121
 C    0.0070747792    0.0762388611   -0.0052455312
 C    0.6692497879   -0.5349198315   -1.2425006096
 C    0.8259551281   -2.0727360389   -1.1649771382
 C   -0.4650713714   -2.7569599431   -1.1269952888
 N   -1.4775035269   -3.3167772484   -1.1379184353
 C    1.7547057285   -2.5764432617   -2.3047478003
 N    1.3041031706   -3.6253887062   -3.0327275671
 O    2.8263128215   -2.0363422758   -2.4837081158
 H    0.8604667748    2.0716298760   -0.2247008257
 H   -0.7334387471    1.8875203142   -0.9675457119
 H   -0.5879138229    2.0158911280    0.7896556135
 H    0.5946644918   -0.1859724944    0.8845959659
 H   -0.9856134571   -0.3674401892    0.1400311058
 H    0.0948201680   -0.2821983492   -2.1416855285
 H    1.6773000024   -0.1354687066   -1.3830117653
 H    1.3574842133   -2.3165788654   -0.2357138829
 H    0.3991365561   -4.0388654419   -2.8828300694
 H    1.8893135360   -3.9710703385   -3.7756110332