20

 C    0.1296154347    1.3146369878   -0.6598697711
 C   -0.0412767722   -0.0884638490   -0.1108576180
 C    1.0831694402   -1.0450202994   -0.2549118578
 N    0.7538069366   -0.4854111233    1.0719495350
 C   -1.4573518798   -0.6453467191   -0.0598716427
 C   -2.3901136189    0.1660990911    0.8708771261
 O   -3.6196861670   -0.4946568858    1.1198042909
 C   -2.1007030092   -0.8330985003   -1.4206512226
 O   -1.5529136589   -0.6481644774   -2.4799316018
 H    1.1876308399    1.5956381416   -0.6683223786
 H   -0.2452460864    1.3741893095   -1.6845183773
 H   -0.4052069418    2.0540882775   -0.0527707386
 H    0.8888426594   -2.1083851572   -0.3655148434
 H    1.9814157035   -0.6994893106   -0.7593425173
 H    1.4160987145    0.2507219290    1.3053767040
 H   -1.3990528872   -1.6504484817    0.3865378653
 H   -1.8442182855    0.3805048731    1.7994997769
 H   -2.6577807499    1.1233113477    0.4121484186
 H   -3.4377569341   -1.2575729724    1.6782172112
 H   -3.1591725281   -1.1661743810   -1.3709694688