13

 N    0.0977692757    1.3737565479    0.1643752789
 C   -0.0698024501    0.0131978861    0.0477716413
 C   -1.1314114490   -0.8031672915    0.0080701629
 N   -0.6144839671   -2.1279702102    0.0013144842
 C   -1.3843988147   -3.2892763662   -0.0305024087
 O   -0.9600412243   -4.4107794507   -0.0459924262
 C    0.7868406029   -2.0681714580    0.0178106919
 O    1.6049512249   -2.9314544916    0.0042970674
 O    1.0965493304   -0.7123883446    0.0522328502
 H    0.9269811674    1.7149102720   -0.3047017557
 H   -0.7211413915    1.9120581193   -0.0800824524
 H   -2.1871414383   -0.6024843685   -0.0079205479
 H   -2.4616460762   -3.0335167839   -0.0400451458