19

 O   -0.0741938333    1.3778890592   -0.4220367069
 C   -0.0843730798    0.0000529671   -0.1620166679
 C   -1.4744374080   -0.5035101646    0.1134416780
 N   -2.4505969818    0.3091447916    0.2593367657
 C   -3.6699074414   -0.4780912180    0.4999103392
 C   -3.2230611353   -1.9536640818    0.3773779470
 C   -3.2730044825   -2.6814866355   -0.9925267372
 C   -1.7228668392   -2.7400416644   -0.9402323013
 N   -1.7258486419   -1.8712912458    0.2857815859
 H   -0.9677160610    1.6853046852   -0.2037238836
 H    0.3443184187   -0.5477287962   -1.0157745641
 H    0.5432227879   -0.2532985263    0.7088089455
 H   -4.0630441328   -0.2549949848    1.4981270787
 H   -4.4484478787   -0.2018186860   -0.2220174783
 H   -3.5550619627   -2.5708580023    1.2155925607
 H   -3.7924135570   -3.6411508993   -1.0142620426
 H   -3.6559712073   -2.0508265323   -1.7990707065
 H   -1.3134184319   -3.7297161882   -0.7224904952
 H   -1.1842980818   -2.3125930375   -1.7903722872