15

 C   -0.3630455317    1.1169379165   -0.1079891585
 C    1.1215960701    1.0449631550    0.1975447530
 C    0.3412531056   -0.2039158265   -0.0340578279
 O    0.1474851406   -1.0080958260    1.1152404210
 C   -0.8985928211   -1.8439907245    1.0851653881
 C   -1.3642970901   -2.6460473836    2.0820639604
 O   -2.4104063893   -3.3261562433    1.5974130748
 N   -2.5857147198   -2.9201636493    0.2623925171
 N   -1.6947168367   -2.0611430026   -0.0100556489
 H   -1.0238084837    1.3693279395    0.7132077651
 H   -0.6885585099    1.4675814000   -1.0805263794
 H    1.8336298403    1.3507372679   -0.5601156746
 H    1.4262199199    1.2457354387    1.2181476518
 H    0.4891513882   -0.7804958252   -0.9409911540
 H   -1.0712228824   -2.8226266369    3.1015350121