15

 C   -0.0073867021    1.4599131682   -0.0760004212
 C   -0.0494654161   -0.0350205496   -0.0254419662
 O    0.2505663053   -0.7173210918   -1.2736473554
 C   -0.4010177057   -1.8637132798   -0.6899614103
 C    0.3653766075   -2.2299369719    0.6085459850
 C    0.6337971129   -0.8569642156    1.1069224685
 N   -0.6180869408   -1.5694834338    1.5348250802
 C   -1.2496962424   -0.9868400559    0.2630925117
 H    1.0101637137    1.8047208514   -0.2892030748
 H   -0.6702156692    1.8404901716   -0.8576848828
 H   -0.3175006085    1.8806635208    0.8852483513
 H   -0.7308991135   -2.6168855364   -1.4014215604
 H    0.9153766747   -3.1202771579    0.8843689823
 H    1.4127355694   -0.5798483568    1.8063013643
 H   -2.3119264451   -0.7597883525    0.2049641978