17

 C    0.4361868056    1.3166751943    0.0194095395
 C   -0.4231131434    0.0853615592   -0.2740736173
 N    0.0330333958   -0.6678132478   -1.4321937168
 C    0.7163088076   -1.8293919558   -1.3182311432
 O    0.9694479213   -2.4309903032   -0.2985907961
 O    1.0929594924   -2.2652772619   -2.5637563662
 C    1.7980771470   -3.5029776278   -2.5382351967
 C    2.2575739682   -3.7865309700   -3.8976682818
 N    2.6355282795   -4.0425667165   -4.9579138169
 H    1.4692493734    1.0263934073    0.2309000708
 H    0.4420771637    2.0093643856   -0.8289258865
 H    0.0442981208    1.8542212470    0.8884799938
 H   -0.4020132211   -0.6075533978    0.5695583882
 H   -1.4667027852    0.3786387537   -0.4359523735
 H   -0.0447658231   -0.2671081635   -2.3531029137
 H    2.6516124412   -3.4499792606   -1.8550686189
 H    1.1499381764   -4.3137345120   -2.1881336550