22

 C   -0.0320255063    1.5320301695    0.1749408685
 C    0.0473842481    0.0111081025   -0.0146252667
 C   -1.3426857804   -0.6740731380    0.1079667178
 C   -1.3614065873   -1.8064677415   -0.9506202551
 C   -0.2345159242   -1.4219754259   -1.8794306269
 C    0.5251470181   -0.4516175898   -1.3751816162
 N    1.2888255457    2.1519865679    0.1885638199
 C    1.7678859831    2.7136887455   -1.0717083640
 C    1.3204354531    3.6015011651    0.0353682744
 H   -0.6865738287    1.9664338261   -0.6043354921
 H   -0.5032400118    1.7426269022    1.1435348144
 H    0.7366900191   -0.3632493107    0.7559046954
 H   -1.5424094973   -1.0350689872    1.1200747249
 H   -2.1233690512    0.0578615532   -0.1304178124
 H   -1.1701930110   -2.7909993747   -0.5004866574
 H   -2.3285933030   -1.8889633410   -1.4598183930
 H   -0.0587728872   -1.9266603145   -2.8236433243
 H    1.4180010963   -0.0525116581   -1.8424875664
 H    2.8255175707    2.5789781950   -1.2811396847
 H    1.1171544754    2.6416535319   -1.9419324842
 H    0.3731417861    4.1219949246   -0.1003103399
 H    2.0441494626    4.1277620780    0.6515016980