19

 C   -0.0743074521    1.5872756778    0.0197268292
 C   -0.0323020950    0.0654921387    0.0025774622
 C    0.6911071181   -0.5883389062   -1.1778065251
 C    0.0651079707   -1.7099175475   -1.5689297959
 C   -1.1853592050   -1.9014521448   -0.8203220781
 C   -1.1775631974   -1.9194319952    0.7925336385
 C    0.0800984056   -1.7444886002    1.5331067009
 C    0.7023903293   -0.6143841627    1.1610738552
 C   -1.4084327260   -0.6675287047    0.0010583369
 H    0.9362844530    2.0102808181    0.0194417323
 H   -0.5978243629    1.9742246427   -0.8609003324
 H   -0.5890632670    1.9544729334    0.9138716940
 H    1.6704735303   -0.2582900074   -1.5067499216
 H    0.4473646606   -2.4244458127   -2.2885205480
 H   -2.0133407571   -2.4560759598   -1.2468312467
 H   -2.0014393049   -2.4835200991    1.2145580088
 H    0.4692159210   -2.4748333199    2.2328681838
 H    1.6849145679   -0.2916324343    1.4878327307
 H   -2.3406497292   -0.1128072963    0.0117468852