17

 N    0.0010553091    1.4931191595   -0.0249763263
 C    0.0134327729    0.0431437488    0.0061333714
 C    0.8225010356   -0.4849188102    1.2333315321
 C    0.8805784875   -2.0454066983    1.2145974319
 N    1.6794502370   -2.5503136805    2.3149049988
 C    2.1980149380    0.0364296893    1.1471642747
 N    3.2834858310    0.4070465816    1.0089893551
 C    0.1879822603   -0.0269987058    2.4795849927
 N   -0.3694639820    0.2962636916    3.4371319957
 H    0.8679393166    1.8600248072   -0.4028426786
 H   -0.7567951049    1.8359909703   -0.6022548309
 H   -1.0129358826   -0.3173609149    0.1219311907
 H    0.4378191462   -0.4399153993   -0.8881526784
 H   -0.1465677615   -2.4041516287    1.3292089801
 H    1.2270013406   -2.3402733503    0.2114346741
 H    1.4721678181   -3.5250551434    2.4942966833
 H    2.6707833480   -2.4776517968    2.1123914735