23

 C   -0.2314744958    1.5410515010    0.0776376169
 C   -0.0198471767    0.0397362143    0.0227519599
 C   -1.2288251785   -0.7290466974   -0.4780513187
 C    1.3484592470   -0.4832993285   -0.3560472385
 C    0.8473342580   -0.6433786539    1.0637592634
 C    1.4985497231    0.0898571167    2.1946758710
 C    0.8357864432    0.1432689214    3.5630690825
 C    2.0875242508   -0.6702893885    3.3522535577
 O    2.0009780541   -2.0660370070    3.3056455184
 H    0.6597055676    2.0738855710    0.4188752212
 H   -0.4879083891    1.9307916599   -0.9147895193
 H   -1.0534218166    1.8007666225    0.7555859538
 H   -1.5058856438   -0.4141022608   -1.4917493162
 H   -1.0342457321   -1.8057881715   -0.5059550620
 H   -2.0995797442   -0.5637267750    0.1681924038
 H    1.4178791924   -1.3651810991   -0.9848246556
 H    2.1361671883    0.2444363415   -0.5291480221
 H    0.5363500596   -1.6467276000    1.3370916619
 H    2.0534169469    0.9787134347    1.9097161011
 H    0.8882850961    1.0571831477    4.1452343103
 H   -0.0880457168   -0.4159684359    3.6737272959
 H    3.0166192249   -0.2908092877    3.7780921052
 H    1.7945452113   -2.3785273755    4.1923481994