23

 C    1.5493240531   -0.9279624382   -1.1678375613
 C    0.4146615543   -0.4094821672   -0.2747440907
 C    0.6473558348   -0.6320355990    1.2141019564
 C    1.7749986885    0.1640477361    1.8305311390
 O    1.4602329027    1.5406170294    1.7498054781
 C    2.4787754359    2.3654072002    2.2587352747
 C   -0.5639802196   -0.8829428155    2.0968588589
 C    0.4005114956   -2.0013948103    1.7901395109
 O    0.0392648163   -3.0133624534    0.8929681780
 H    1.6875820242   -2.0037873374   -1.0280677281
 H    1.3200662332   -0.7488942213   -2.2232100925
 H    2.5009826030   -0.4301960800   -0.9543657374
 H    0.2676277797    0.6637776060   -0.4377814578
 H   -0.5143242539   -0.9087312199   -0.5630848784
 H    1.9193729490   -0.1305506284    2.8843998286
 H    2.7268014249   -0.0362217116    1.3097719511
 H    2.6726754830    2.1674791651    3.3256210858
 H    3.4264575364    2.2338818640    1.7118105822
 H    2.1489217506    3.4014076939    2.1478850073
 H   -0.5793459329   -0.4640869810    3.0975777469
 H   -1.5294779789   -0.9184930107    1.6030212442
 H    1.0574343903   -2.3327391017    2.5957043704
 H   -0.6369313702   -3.5546047792    1.3130319735