15

 C    0.0149690710    1.5763451524    0.0069724192
 C    0.0096879914    0.0396548882    0.0694803456
 C    0.7959213867   -0.5129807401    1.2702328750
 O   -1.3444067101   -0.4851002218    0.0390868984
 C   -2.1957377476   -0.1932348952    1.0470142678
 O   -3.3157300261   -0.6035674082    1.0611708657
 C    0.6113705640   -0.4863397083   -1.1726785666
 N    1.1297926874   -0.8712753036   -2.1295693789
 H    1.0368610207    1.9377997810   -0.1312257957
 H   -0.5950749123    1.9210976788   -0.8304852371
 H   -0.3755211597    2.0021776786    0.9343380419
 H    0.4103663318   -0.1024204595    2.2065217002
 H    0.7223371791   -1.6020511227    1.2992928040
 H    1.8490069180   -0.2347085421    1.1831483572
 H   -1.7626263043    0.4457456725    1.8347806634