20

 C   -0.0186122932    1.5908682701    0.1335024476
 C   -0.0176299418    0.0640619215    0.0363927935
 C   -1.4396163018   -0.4798773085   -0.2021273430
 C   -2.0202156206   -0.0344224677   -1.4681231493
 N   -2.4586438958    0.3223720480   -2.4763814369
 C    1.1069315789   -0.4762471344   -0.9024131955
 C    2.0131454252   -0.6808177592    0.3430999184
 C    0.7355966854   -0.6125363201    1.2197750239
 O    0.7369789607    0.1347708276    2.4110830648
 H    0.9908507750    1.9801157997    0.2862297391
 H   -0.4175142501    2.0290828134   -0.7866820145
 H   -0.6292441541    1.9290491668    0.9755679109
 H   -1.4287461366   -1.5760118419   -0.2011138188
 H   -2.1009802830   -0.1665129431    0.6150332960
 H    0.8328944762   -1.4224019812   -1.3772980187
 H    1.4630377667    0.2080578362   -1.6745242943
 H    2.6132148518   -1.5920374550    0.3935188455
 H    2.6582841266    0.1812370340    0.5296406982
 H    0.3370534408   -1.6248438848    1.3910840288
 H    1.2478042597   -0.3426024316    3.0723936942