11

 O    0.0308785974   -0.0623626975    0.0031163702
 C   -0.0116520355    1.1313156924    0.0086172657
 N   -1.1586356231    1.8896852200    0.0287049787
 C   -1.2780796250    3.2930867981    0.0372291316
 O   -2.3652685792    3.8215327672    0.0558049550
 C    0.0212376962    3.9576828269    0.0232433869
 C    1.1358265228    3.2199219964    0.0042205496
 O    1.1620207671    1.8651507322   -0.0032115863
 H   -2.0245320731    1.3664734323    0.0384426776
 H    0.0552692648    5.0371337994    0.0286416247
 H    2.1409861277    3.6235123727   -0.0071997635