18

 C    0.0768817804    1.5104179785   -0.2528505312
 C    0.0346096297    0.0261936475    0.1320900878
 C   -1.3448872258   -0.5408360384    0.0966969148
 C   -1.9985428793   -1.8713681689    0.0869972775
 C   -2.8897550000   -1.4350974636    1.2440045078
 N   -2.5587887665    0.0087944071    0.8897141892
 C   -3.2380023927    0.1093287466   -0.4385372970
 O   -4.1197516222    0.8298208603   -0.7825378555
 C   -2.2961696356   -0.8569510142   -1.0603670039
 H    1.0956915108    1.8999574473   -0.1759564725
 H   -0.2689338179    1.6624382334   -1.2800060010
 H   -0.5656091027    2.0971443192    0.4096220567
 H    0.6671631211   -0.5643901686   -0.5420514985
 H    0.4457614927   -0.1076261196    1.1404232328
 H   -1.5687219578   -2.8386353381   -0.1488021882
 H   -3.9602098613   -1.6657712763    1.2203743975
 H   -2.4727053638   -1.6848501831    2.2223036076
 H   -2.0755096094   -1.0776917091   -2.0962708640