21

 C    0.0682839367    1.4939550748   -0.0936904522
 C    0.0369283720   -0.0175467320   -0.0409333899
 C   -1.2486831509   -0.6644077778   -0.5494611152
 C   -1.1389674402   -2.2110516243   -0.6444668299
 C    0.1748158737   -2.6756522302   -0.0098045031
 C    0.3106625866   -2.1148815219    1.4233529142
 C    0.7507693324   -0.6892859505    1.1322205308
 C    1.3364993770   -0.7553762148   -0.2579628693
 O    1.2560075646   -2.0751030775   -0.7409595628
 H    1.0244356425    1.8876612645    0.2671095230
 H   -0.0765059851    1.8575164982   -1.1178593566
 H   -0.7232231846    1.9282999120    0.5293563576
 H   -2.0714881320   -0.3750630774    0.1160967575
 H   -1.4959160975   -0.2437230621   -1.5308446528
 H   -1.9866662926   -2.6982308131   -0.1504917709
 H   -1.1438928368   -2.5350425721   -1.6891420156
 H    0.2975781957   -3.7589055543   -0.0767790289
 H   -0.6311073070   -2.1919680122    1.9761041531
 H    1.0847572341   -2.6447271416    1.9880959704
 H    1.1866958205   -0.0816894729    1.9171164684
 H    2.2405960408   -0.2489382147   -0.5755826979