19

 O   -0.2627292839    0.0609884934   -0.2124417219
 C   -0.1431161755    1.2450086370   -0.0174803682
 C    1.1711797640    1.9811886783   -0.0809595461
 C    1.0612906227    3.3525255968   -0.8246416437
 C    1.0267745385    4.0899656954    0.5378172646
 C    1.5357426529    2.7947112748    1.2228790744
 C    0.9381452597    2.3713496529    2.5379107731
 C    0.4938190310    3.3414556358    3.5465838490
 O   -0.4545165446    2.6403736315    2.7379202958
 H   -1.0270420670    1.8783379988    0.2150668023
 H    1.9334629158    1.2844375704   -0.4340868721
 H    1.9657630043    3.5628373292   -1.3993946132
 H    0.1970499946    3.4824354437   -1.4810488299
 H    1.6427561993    4.9857134303    0.6410254018
 H    0.0061939995    4.3205056123    0.8533661658
 H    2.6260957170    2.8036075815    1.3276908954
 H    1.2450553654    1.3844877275    2.8895330702
 H    0.4997805354    3.0693113217    4.6006162770
 H    0.5810256908    4.4070511186    3.3400848956