12

 O    0.0383116637   -0.0324240057   -0.0453328361
 C    0.0362141921    1.1688293776    0.0099168457
 N   -1.0801162831    1.9998114988    0.0549802816
 C   -0.7757966279    3.3618333190    0.0317774692
 O   -1.5570295758    4.2664112174    0.0868593504
 N    0.6558682832    3.4934028798   -0.0787133274
 C    1.3333076275    3.0486747130    1.1563082651
 C    1.2006882947    2.1239116158   -0.0043343947
 H   -2.0274499322    1.6581100821    0.1217177211
 H    2.2911704977    3.5231846024    1.3404188078
 H    0.7236135735    2.8689612626    2.0374707848
 H    2.0552180866    1.8782728171   -0.6235257175