16

 O   -0.0222015069    1.3144292896    0.0295477917
 C    0.0831890795   -0.0818924430   -0.0207658604
 C   -1.3595377910   -0.6724141600   -0.1255690418
 C   -1.1716457293   -0.7548769372   -1.6788289265
 C    0.3674360244   -0.6367650960   -1.4657263948
 C    1.1428077781    0.2274180773   -2.3325701749
 N    1.7647629638    0.9601955454   -2.9764317610
 C   -1.5241327081   -1.9566279011    0.5258338160
 C   -1.6396518047   -3.0303045153    1.0546422846
 H    0.8268144967    1.7015797506   -0.2161779609
 H    0.7223356999   -0.4857177490    0.7724266643
 H   -2.1164004018    0.0404362205    0.2095533851
 H   -1.5226069312   -1.6607727081   -2.1710315438
 H   -1.5810966175    0.1246176680   -2.1751165409
 H    0.8323042050   -1.6244175353   -1.4094105634
 H   -1.7545593569   -3.9727249264    1.5306680965