20

 C   -0.0144750846    1.5167129891    0.0215380926
 C   -0.1286779129   -0.0037682546   -0.1062625745
 C    0.8179724908   -0.5662216467   -1.1729936086
 N    0.7589755919   -2.0096421877   -1.2788308132
 C    0.1894650419   -2.7596677695   -2.2475747742
 C    0.3258061917   -4.0827081293   -1.8807368397
 C    1.0092550282   -4.0284629665   -0.6420963097
 N    1.3436140124   -5.0969222773    0.1922932309
 N    1.2749141650   -2.7751002344   -0.2802029064
 H    1.0021552466    1.8171351835    0.2984323194
 H   -0.2628120526    2.0189358891   -0.9205297947
 H   -0.6935044876    1.8987834259    0.7891592586
 H    0.1064919246   -0.4878108031    0.8468462977
 H   -1.1570218003   -0.2881405222   -0.3593178026
 H    0.5754221297   -0.1564665925   -2.1590437295
 H    1.8512605955   -0.2841048200   -0.9417579280
 H   -0.2641427274   -2.3046158912   -3.1147655009
 H   -0.0158223400   -4.9522514152   -2.4180855383
 H    1.6717695049   -5.9085856537   -0.3134272477
 H    2.0213824522   -4.8202672437    0.8912688789