17

 C    0.0076994075    1.5947820756    0.1275343114
 N    0.0040360097    0.1474981691    0.1474795487
 C   -1.0379170667   -0.5703058817    0.9160243771
 C   -1.5105582898   -1.8382417266    0.1849475354
 O   -0.3668455668   -2.5823271549    0.6959256467
 C    0.0438025868   -1.4945849768    1.5214213385
 C    1.0934282761   -0.5342854729    0.8836948719
 C    2.1589473466   -1.1019721450    0.0611038209
 N    3.0128348317   -1.5451353303   -0.5785455389
 H    0.8731725781    1.9481683033   -0.4413850046
 H   -0.8932819303    1.9554776537   -0.3777789338
 H    0.0476508984    2.0517975873    1.1338674007
 H   -1.7451131958    0.0439356636    1.4761174174
 H   -2.4491088025   -2.2689269158    0.5541747263
 H   -1.5154496055   -1.7780949330   -0.9067271307
 H    0.1877384241   -1.7693877196    2.5672306299
 H    1.5444597484    0.0995601440    1.6646654431