15

 O   -0.0449047710    1.4518543277    0.0110664007
 C   -0.0152671974    0.0506071862    0.0026036476
 C   -1.4371753106   -0.4757500908    0.0129717693
 O   -2.4226432030    0.2174036805    0.0265866113
 C   -1.5585820816   -2.0177027177    0.0053698168
 O   -0.5679445837   -2.7039287185   -0.0076333446
 C   -2.9919452939   -2.5440764439    0.0160691790
 C   -3.0922315042   -3.9914194947    0.0105045930
 C   -3.1742383964   -5.1889972152    0.0059221215
 H    0.8630262120    1.7682974296    0.0046158828
 H    0.4864626421   -0.3731763773   -0.8831888027
 H    0.5030706507   -0.3834444577    0.8737380971
 H   -3.4960628617   -2.1059000202    0.8878004305
 H   -3.5115450031   -2.0983140253   -0.8426634001
 H   -3.2487078082   -6.2482296528    0.0019514775