19

 C   -0.5617321210    1.5176573798    0.0272910360
 C    0.1131056395    0.1493612147   -0.0147994809
 C    1.0045632925   -0.1376494245   -1.2416156895
 C    2.1891419501   -0.9749782271   -0.7417130368
 O    3.0826875094   -1.3965127627   -1.4284801791
 C    2.0771788060   -1.1559628566    0.7753997488
 C    3.3925641427   -1.1539798606    1.5448641008
 C    1.0441487402   -0.1072462286    1.1814912242
 O    0.9900042847    0.4541687759    2.2453023098
 H    0.1794935583    2.3186661965   -0.0614075075
 H   -1.2805657253    1.6270350641   -0.7897483180
 H   -1.0854967431    1.6562273139    0.9759991874
 H   -0.6579640971   -0.6335203596    0.0467999978
 H    0.4932094974   -0.6472690116   -2.0625830605
 H    1.4153889892    0.7909222799   -1.6584122326
 H    1.5700825678   -2.1283465862    0.9048449917
 H    3.8887927910   -0.1832098382    1.4592197939
 H    3.2165862059   -1.3475228400    2.6050828151
 H    4.0635756019   -1.9159234690    1.1424793991