23

 C    0.0589132580    1.5262918724   -0.0041087862
 C    1.3195693888    0.6922120725    0.0015490401
 C   -0.0371717928    0.0211189610   -0.0007012571
 C   -0.4714330608   -0.6804743092    1.2777482909
 C   -0.1078066978   -2.1698690654    1.2214100418
 C   -0.8673583395   -2.8926774890    0.0956910072
 C   -0.8502976547   -2.1355427823   -1.2345781292
 C   -1.8897180993   -1.0729127642   -1.5128597046
 C   -0.4559146095   -0.6703525784   -1.2695892508
 H   -0.2051992002    2.0583734334    0.9045643089
 H   -0.2003963870    2.0527905989   -0.9169200013
 H    1.9116676564    0.6586359136   -0.9074303427
 H    1.9083398361    0.6598828734    0.9128488050
 H    0.0056023740   -0.1979765374    2.1380333117
 H   -1.5551469950   -0.5704030204    1.4266186145
 H    0.9729758124   -2.2593522796    1.0530207257
 H   -0.3206581198   -2.6549548985    2.1805584050
 H   -0.4358389971   -3.8886530905   -0.0496554388
 H   -1.9054401551   -3.0580781793    0.4119099728
 H   -0.5441912788   -2.7264054992   -2.0924033926
 H   -2.2849980833   -0.9796970432   -2.5188048591
 H   -2.6183013501   -0.8720026132   -0.7331267774
 H    0.0918938652   -0.3427907252   -2.1495336939