18

 C   -0.0256516633    1.4886980670    0.0674545530
 C    0.1008577911   -0.0164180864   -0.0624220460
 O    1.1403072605   -0.5651226204   -0.3383872041
 C   -1.1902501548   -0.8144462793    0.1746386363
 N   -1.0244434551   -2.2301023015    0.0598664384
 C   -0.6044076820   -3.1044869055   -1.0443574097
 C   -0.5352270862   -4.2617345633   -0.0061987505
 C   -0.9275579016   -3.1934819102    1.0388376322
 O   -1.0943648369   -3.1395723185    2.2291466687
 H    0.9353296382    1.9593074230   -0.1417210209
 H   -0.7838915494    1.8729774915   -0.6240806887
 H   -0.3534554026    1.7550980536    1.0787462873
 H   -1.5507896648   -0.6101249401    1.1905090857
 H   -1.9632074442   -0.4394904260   -0.5126989769
 H   -1.3606611424   -3.2173169907   -1.8287043192
 H    0.3537623618   -2.8178487895   -1.4822686656
 H   -1.2671217881   -5.0608733950   -0.1351446530
 H    0.4553373298   -4.6912256986    0.1509027831