19

 C    0.1505632107    1.0062006036   -0.5025802193
 N   -0.4506969907    0.2497086975    0.6019229743
 C    0.4120265968   -0.6202634309    1.2962832988
 C    0.8155820969   -1.9203170540    1.0944516929
 C    0.4093368420   -2.8136478617   -0.0374383054
 C    1.6969084871   -2.2668461580    2.1765496406
 C    1.7996283680   -1.1578216890    2.9782803198
 O    2.4830207712   -0.8939996281    4.1235411621
 N    1.0323332042   -0.1620665110    2.4554382476
 H    0.5758777204    0.3744576267   -1.2975487483
 H   -0.6065487508    1.6626109427   -0.9434297265
 H    0.9550553861    1.6362168388   -0.1116806049
 H   -1.2797724515   -0.2379823204    0.2874338981
 H    1.2736731499   -3.1538576829   -0.6206390151
 H   -0.1098299399   -3.7134387164    0.3154726631
 H   -0.2654289490   -2.2957279459   -0.7265416954
 H    2.1953164074   -3.2129107667    2.3279005628
 H    2.9834755802   -1.6807636436    4.3592111923
 H    0.8543196010    0.7282637995    2.8868773024