14

 O   -0.3414549521    1.2400728708   -0.1493740501
 C    0.1153203729   -0.0978731528   -0.0640171717
 C    0.9330308480   -0.4625693788   -1.2340128161
 N    1.6060958423   -0.6906563791   -2.1446719259
 C    0.8817854548   -0.3550477638    1.2467968606
 C    0.1063362462    0.2235852918    2.4402442328
 O    0.6423509775    0.6018422574    3.4448280531
 C    1.0844030519   -1.8473009117    1.5182852526
 O    0.5187548420   -2.7112304078    0.9031877118
 H    0.4157987159    1.8195484172   -0.2953465515
 H   -0.7817779067   -0.7244349909   -0.0711148723
 H    1.8672349161    0.1246078404    1.2455045977
 H   -0.9958421195    0.2246913021    2.3181700831
 H    1.7777271806   -2.0688837448    2.3540953258