18

 O    0.1073064077    1.4547546221   -0.1949753890
 C    0.0261639568    0.0340070771   -0.0372215301
 C   -1.4143522822   -0.4958859266   -0.0364806177
 C   -2.1537961389   -0.1310230241   -1.3355277873
 O   -2.3599288914    1.2559694369   -1.4896481683
 C   -1.4260403517   -2.0295654449    0.1703558909
 C   -0.8642180249   -2.4583214088    1.4458955730
 C   -0.4049285710   -2.7929515103    2.5054265537
 H   -0.2325544175    1.8594685717    0.6105535081
 H    0.5712812521   -0.3812965438   -0.8933136929
 H    0.5490310433   -0.2835572791    0.8732997202
 H   -1.9568276429   -0.0323528737    0.7988198980
 H   -1.5987307232   -0.5580689140   -2.1913988308
 H   -3.1466864136   -0.5965081106   -1.3371320800
 H   -1.4994664764    1.6729306293   -1.3407888704
 H   -2.4599968594   -2.3884090012    0.0937954965
 H   -0.8780300505   -2.5120403932   -0.6509167474
 H   -0.0008962263   -3.1022027669    3.4374372133