23

 C   -0.3291116149    1.5249410868   -0.0589381585
 C   -0.2860493311    0.0138426920   -0.2975680576
 C    0.7071670845   -0.4507496591   -1.3504996593
 C    1.2238563079    0.4486275338   -2.3912962217
 O    2.0330724611    0.0920278744   -1.2622032565
 C    0.7129026207   -1.9479893368   -1.6536662723
 C    1.1412274604   -2.7890162053   -0.4465761485
 O   -0.5933616353   -2.2643569618   -2.1162514079
 C   -0.7074053922   -3.5104807642   -2.7629200557
 H    0.6758559874    1.9173018747    0.1216660673
 H   -0.7598245238    2.0607557062   -0.9104156464
 H   -0.9447510466    1.7538620939    0.8156373636
 H   -0.0317412406   -0.4867561933    0.6449035287
 H   -1.2729418429   -0.3621496014   -0.5868263200
 H    1.5453515155    0.0338361611   -3.3458898013
 H    0.9128730332    1.4897637549   -2.4237026912
 H    1.4395527676   -2.1128207209   -2.4657903250
 H    1.2900784719   -3.8360049628   -0.7242927462
 H    2.0890301741   -2.4084809812   -0.0551328047
 H    0.3887655090   -2.7503923754    0.3457537083
 H    0.0109135682   -3.6034301739   -3.5928832770
 H   -0.5553834704   -4.3585755327   -2.0803025416
 H   -1.7208590838   -3.5702224190   -3.1677703465