19

 C   -0.1992625194    1.3886620545    0.5756622939
 C    0.0167226475   -0.0191138527    0.0382791422
 C    1.3632871736   -0.3360166739   -0.5727119529
 C    0.9995444345   -0.9034639506    0.7779148511
 C   -1.1956686307   -0.6542541023   -0.5495181499
 C   -1.5133081256   -0.8241269025   -1.8840579633
 N   -2.7352509956   -1.4093052201   -1.9235092062
 N   -3.2524299102   -1.6386332813   -0.7018838133
 C   -2.3235780639   -1.1796219554    0.1308367965
 H    0.7241561580    1.7918713303    1.0044274997
 H   -0.5287930526    2.0662007819   -0.2196464687
 H   -0.9661962826    1.3988039188    1.3578562628
 H    1.3993315431   -1.0202408276   -1.4129954695
 H    2.0991667795    0.4601204522   -0.6127717495
 H    1.4883584401   -0.4924015435    1.6549811209
 H    0.7830059312   -1.9639308979    0.8391073801
 H   -0.9703197890   -0.5768968606   -2.7826525089
 H   -3.2613187996   -1.6856776784   -2.7346750890
 H   -2.4837035181   -1.2437402910    1.1976943640