13

 N   -0.0400189721    1.3667228508    0.0034515038
 C    0.0710121457    0.0082894968   -0.1190770217
 O    1.1080289509   -0.5830242013   -0.2980039507
 N   -1.1706902325   -0.6787286563   -0.0548641619
 C   -1.2836477284   -2.0559781405    0.0695054228
 C   -2.6209201628   -2.3129674932    0.0856611718
 N   -3.3498350192   -1.1415591050   -0.0381256701
 C   -2.4617177490   -0.1903246338   -0.1198864461
 H    0.8413218071    1.8503260221    0.0733819400
 H   -0.8113636239    1.7680804346    0.5105014589
 H   -0.4032869111   -2.6706825910    0.1325045800
 H   -3.1127690851   -3.2689292277    0.1767755690
 H   -2.6750364596    0.8570238646   -0.2694395658