21

 C   -0.0567568668    1.5152605321    0.0477107109
 C   -0.0131479456    0.0079184630    0.0233966246
 C    0.3154670775   -0.8135905568   -1.2724138929
 C   -0.4188527531   -1.9655366004   -0.5181017382
 C    0.5291307940   -2.2239376065    0.6702423533
 C    0.8354408750   -0.7403441959    1.0766527449
 C   -1.2992351029   -0.8448377104    0.0493822401
 C   -2.5337331572   -0.7960006339    0.8221391088
 O   -2.4927379691   -0.4126036500   -0.5722005440
 H    0.9228508192    1.9437843352   -0.1911577189
 H   -0.7832080861    1.8937907529   -0.6778393071
 H   -0.3451971599    1.8876170795    1.0378913051
 H   -0.2420535121   -0.4574659630   -2.1405661480
 H    1.3702534442   -0.9623879275   -1.5230780664
 H   -0.8472291145   -2.8219831964   -1.0373563354
 H    0.0477663413   -2.7884420652    1.4738737525
 H    1.4266446180   -2.7700698947    0.3668957683
 H    1.8976028568   -0.4901734245    0.9943854214
 H    0.5164893073   -0.5101252467    2.0980668172
 H   -3.0873394209   -1.7106642820    1.0312537948
 H   -2.7158993350    0.0225678513    1.5175833688