18

 C    0.0303169074    1.5214355757   -0.0040539394
 N    1.2560564018    0.6975223437    0.0505012791
 C   -0.0537380716    0.0458522969    0.0274467532
 C   -0.4668139857   -0.8335295823    1.2202069748
 C   -1.0957565045   -2.0148546741    0.4531101377
 O   -2.3754829137   -1.6164918784   -0.0393308191
 C   -2.0771699392   -0.7879999197   -1.1748842217
 C   -0.5337680958   -0.7858405199   -1.1628123787
 O   -0.2851971416   -2.1268819787   -0.7051005920
 H   -0.1725592134    2.1009185935    0.8925363633
 H   -0.2142974094    2.0334304798   -0.9328959672
 H    1.6957703752    0.6593982478   -0.8667070954
 H    0.4131345400   -1.1415075312    1.7901756162
 H   -1.1873440825   -0.3600900779    1.8898491539
 H   -1.1805868293   -2.9701876773    0.9687822250
 H   -2.4798911188   -1.2490119832   -2.0836897232
 H   -2.5104181793    0.2093243341   -1.0467549439
 H   -0.0427734396   -0.5998877688   -2.1181833325