16

 C    0.0744225910    1.4159184009    0.1063252919
 N    0.0436169540   -0.0358500093    0.1039034340
 N    0.0014295402   -0.7160038508   -1.0679530654
 C   -0.0658948295   -1.9742210518   -0.6652180639
 N   -0.0763559382   -2.1499760411    0.6819575292
 C   -0.0163969970   -0.9080255571    1.1396229351
 C    0.0241670112   -0.5101575068    2.5836972816
 C    1.4419800953   -0.1046223419    2.9718295529
 O    1.7867951815    1.0350249096    3.1502863309
 H    0.4830471339    1.7714539437    1.0528612952
 H    0.7136011148    1.7476567587   -0.7125448692
 H   -0.9305222249    1.8242140745   -0.0396579165
 H   -0.1071460684   -2.7924774160   -1.3685087582
 H   -0.6487065447    0.3242828768    2.7980050438
 H   -0.2778541969   -1.3844216846    3.1666455239
 H    2.1605051476   -0.9482878149    3.0464361847