15

 N    0.0471552543   -1.1366180889   -0.0733242415
 C    0.0157572077    0.0198469460   -0.0374603464
 C   -0.0200637023    1.4473922613    0.0569183133
 C   -1.2577173091    2.2573284606    0.4199431919
 C   -0.6354490868    3.3976123198   -0.4536427632
 C    0.2249461453    4.2607794601    0.4324507487
 C    1.3057731497    3.5565092179    0.7720757555
 C    1.2664951738    2.2674948679    0.0311613230
 N    0.3249765101    2.3772447635   -1.0926753338
 H   -2.1355685531    1.8242048833   -0.0617829091
 H   -1.4654341464    2.4611581220    1.4728351781
 H   -1.2872710747    3.8946443309   -1.1686450098
 H   -0.0844625144    5.2210356292    0.8239200773
 H    2.0861758102    3.8262793974    1.4700227013
 H    2.1703046756    1.7031646791   -0.1740383153