16

 C    0.6882660182    1.9702163271   -0.0729530743
 C    0.3893865119    0.4678397925    0.0734230804
 C    0.8263122796   -0.2959092818   -1.0833989068
 C    1.2092516734   -0.9161090558   -2.0483005377
 C    1.6378444162   -1.6198793445   -3.1364215232
 N    2.0021026548   -2.2216542779   -4.0611971539
 C    0.9691219690   -0.1082337266    1.4038362750
 C    0.9001726672   -1.6069339026    1.5899942570
 O    1.4109050847    0.6394588436    2.2371214817
 H    1.7624440835    2.1395323888   -0.1721306240
 H    0.1850787455    2.3737408681   -0.9540360168
 H    0.3434703208    2.4972002788    0.8177572994
 H   -0.7000801010    0.3269089387    0.1646174119
 H    1.6136481588   -2.0944940806    0.9172718781
 H    1.1444841248   -1.8581761856    2.6223280054
 H   -0.0917396172   -1.9909594823    1.3300484878