21

 C   -0.6616528386    1.3435679471   -0.0434662805
 C    0.0896831139    0.0133092525   -0.0770556403
 C    1.2926089048   -0.0229441002   -1.0565580702
 C    2.2102738803   -1.0427702581   -0.4279553113
 C    1.8598195627   -1.3230509175    0.8260595571
 C    0.6617767760   -0.5161221954    1.2787113088
 C    1.0755157219    0.5925253181    2.2870872460
 C    1.6196457926    0.0490655600    3.5255837256
 C    2.0559779979   -0.4228506425    4.5418009010
 H   -0.0127900347    2.1732872724    0.2566232425
 H   -1.0571910393    1.5837450732   -1.0360332984
 H   -1.5104206154    1.3128875922    0.6484903762
 H   -0.6109971910   -0.7588162148   -0.4177130017
 H    0.9840238177   -0.2858489026   -2.0751121689
 H    1.7881794367    0.9569390886   -1.1328581027
 H    3.0658681695   -1.4618863154   -0.9465114690
 H    2.3854935024   -1.9944618206    1.4948730701
 H   -0.0805765439   -1.1420186104    1.7880489594
 H    1.8178232113    1.2530692451    1.8215511493
 H    0.2056037215    1.2172328442    2.5231110716
 H    2.4455893937   -0.8262010358    5.4431862956