17

 C    0.1510909286    1.3108176005    0.3140342296
 O   -0.2127634436    0.2709261403   -0.6001296150
 C   -1.2557923529   -0.4817537350   -0.2327551762
 C   -1.4165625491   -1.8237859238   -0.1469981795
 C   -2.8067482254   -2.0410213449    0.1702095982
 C   -3.3658012242   -0.8116059934    0.2714470520
 O   -4.5869974370   -0.4141019798    0.6457294855
 C   -5.2500399264    0.4776728772   -0.2568034942
 O   -2.4370110369    0.1681486730    0.0242506469
 H    1.0280993990    1.7987296782   -0.1136014758
 H   -0.6579954832    2.0391715401    0.4247188167
 H    0.4011010641    0.8915121000    1.2957977182
 H   -0.6490434806   -2.5640345003   -0.3012161772
 H   -3.3140982831   -2.9805291847    0.3142815876
 H   -4.6995960668    1.4180571227   -0.3571334082
 H   -5.3629171329    0.0141175357   -1.2439980190
 H   -6.2329349597    0.6720603443    0.1747184105