19

 C   -0.2600771596    1.5801151772   -0.0531024980
 C   -0.0310711743    0.0822120958    0.0530768847
 C   -1.1869930467   -0.7361448578   -0.4931151448
 O    1.2272680010   -0.2794075864   -0.6721520845
 C    1.8154025572   -0.7168565243    0.4734085874
 O    2.9398142910   -1.0899040436    0.6349670479
 C    0.6094788323   -0.4640385322    1.3635159734
 C    0.9337832428    0.4069954359    2.5814615041
 O    1.7882455564   -0.2993948138    3.4570690037
 H    0.6213308427    2.1453242727    0.2567301977
 H   -0.4902750929    1.8516730972   -1.0875669481
 H   -1.1054359489    1.8812965819    0.5737794952
 H   -1.3874514182   -0.4694776345   -1.5350278383
 H   -0.9650473000   -1.8057162069   -0.4475862129
 H   -2.0940679532   -0.5454710522    0.0895950469
 H    0.1493377538   -1.3943253860    1.7074723446
 H    1.3793028878    1.3621354351    2.2660888710
 H    0.0243793534    0.6386675356    3.1453383953
 H    2.5617783954   -0.5719416734    2.9456052947