19

 C   -0.0773421047    1.6288432164   -0.1271049824
 C   -0.0606920782    0.1050269616   -0.2694427478
 C   -1.3560779810   -0.5468599117    0.2390817362
 C   -1.3712204436   -2.0553789202    0.1015507701
 C   -2.6357873124   -2.7638210749   -0.2886323692
 N   -1.5220087595   -2.6998590082   -1.2279623222
 C   -0.4575228654   -2.8297344273    0.9962247238
 O    0.1348627188   -2.3627076308    1.9371068676
 H    0.8536798338    2.0714447921   -0.4938053690
 H   -0.9034758866    2.0744174377   -0.6931854002
 H   -0.1967585837    1.9254617677    0.9206133725
 H    0.0964518580   -0.1649251387   -1.3220220468
 H    0.7857370982   -0.3091887980    0.2877544997
 H   -1.4925921024   -0.2968868868    1.2976005182
 H   -2.2168218657   -0.1291660685   -0.2995796648
 H   -2.8532503354   -3.7553747210    0.1000793312
 H   -3.5083551407   -2.1347794070   -0.4443095724
 H   -1.6870624331   -1.9773682839   -1.9251344536
 H   -0.3761771465   -3.9045341885    0.7202993093