16

 C   -0.0751391168    1.3064208841    0.1547574956
 O    0.0703538197   -0.1152447355    0.0837646491
 C    0.6018022453   -0.6951839729    1.1790371012
 N    0.9487363597   -0.0439323458    2.1971103969
 N    0.6880829563   -2.1106295560    0.9698584083
 C    1.2015557304   -2.9878384886    1.9369341354
 N    1.6317416092   -2.6155920349    3.0717766515
 C    0.2546205313   -2.7044932498   -0.2375183610
 O    0.3104553097   -3.8892866796   -0.4513782682
 H    0.8961571895    1.7846887543    0.3007284487
 H   -0.5128006056    1.5996091867   -0.7999046438
 H   -0.7293027085    1.5842247533    0.9844143924
 H    1.3261864736   -0.6607822182    2.9157955750
 H    1.1709568369   -4.0114981808    1.5650230669
 H    1.9539815461   -3.4206486850    3.6050266451
 H   -0.1333996868   -1.9688969213   -0.9468726030