20

 C   -0.0896390000    1.5359742904   -0.1935987888
 C   -0.0613552803    0.0030545945   -0.0121449644
 C    0.7118984058   -0.3994769968    1.2497828154
 C   -1.5001396005   -0.4953085583    0.0504889031
 O   -2.1633930837   -0.4430958336    1.0637897811
 C   -2.0894591537   -1.0461066961   -1.2388624538
 N   -3.4786818794   -1.3669548842   -1.0513794986
 C   -4.2771417828   -1.7651036833   -2.0703958795
 O   -3.9069955087   -1.9081356870   -3.2179960601
 H    0.9303451765    1.9230041808   -0.2725452981
 H   -0.6316920056    1.8311693943   -1.0976381342
 H   -0.5736665162    2.0108039031    0.6650175973
 H    0.4156501826   -0.4379972037   -0.8962092557
 H    0.2038451986   -0.0203703027    2.1398885830
 H    0.7869798087   -1.4870967795    1.3431940090
 H    1.7257022988    0.0102747216    1.2226787271
 H   -1.9514609955   -0.3185590322   -2.0505000567
 H   -1.5026143200   -1.9280398543   -1.5378448422
 H   -3.8333613745   -1.2410165083   -0.1133946940
 H   -5.3176338202   -1.9486277148   -1.7376456900