15

 C    0.0652420812    1.3869423446    0.0068386366
 O   -0.0160589892   -0.0250782902    0.0030672761
 C   -1.2414446527   -0.5793875635    0.0109264938
 C   -2.4131027621    0.1014182183    0.0224014664
 N   -3.5986976190   -0.6159967745    0.0292100126
 C   -3.5693858006   -1.9716410997    0.0241619182
 N   -2.4984990351   -2.6887865060    0.0133697869
 C   -1.2381166693   -2.0684406179    0.0062321536
 O   -0.2056163001   -2.7037662693   -0.0052625653
 H    1.1274898470    1.6330393477   -0.0007910614
 H   -0.4142438586    1.8187147261   -0.8825213569
 H   -0.4000938881    1.8131233668    0.9063547119
 H   -2.5062381218    1.1774293559    0.0267216618
 H   -4.4802033339   -0.1294143820    0.0377318258
 H   -4.5463527977   -2.4529147461    0.0299239700