22

 C   -0.0438171336    0.8465370861   -0.6168302614
 C    0.2225094163   -0.5432555502   -0.0198418559
 C    0.8690532355   -0.5320381280    1.3612580200
 C    0.0741401515    0.1838739801    2.4401194740
 C    1.7116666242   -1.7010164932    1.7634208233
 N    2.3227947852   -0.3948969530    1.5448134761
 C    3.2747849879   -0.1784917474    0.4496204081
 C    3.3663324752   -1.1749551854   -0.6236198441
 C    3.4846836576   -2.0103037330   -1.4815476331
 H    0.8782348961    1.4283622536   -0.7177242270
 H   -0.4854396593    0.7548845561   -1.6138760278
 H   -0.7365307910    1.4300546183   -0.0032129550
 H   -0.7312153796   -1.0810987187    0.0657563979
 H    0.8388473747   -1.1226071842   -0.7109096367
 H   -0.9328242956   -0.2409541211    2.5263240660
 H    0.5750928085    0.0911664901    3.4063580431
 H   -0.0291071390    1.2514493506    2.2209810014
 H    1.7148248961   -2.0581512167    2.7914659251
 H    1.8819356309   -2.4709654307    1.0132316956
 H    3.0728288818    0.8081070286    0.0165339968
 H    4.2677146577   -0.1054708519    0.9128869493
 H    3.5828788587   -2.7381943200   -2.2487696958