17

 C    0.0208126404    1.4668706525    0.0125547655
 C    1.2595044455    0.6513221556    0.0313473928
 C    1.9700966915    0.3592406462    1.3739332435
 C    0.8859677498   -0.3777118753    2.1192610171
 C   -0.1800754774   -0.5457552007    1.2799760026
 N   -1.1690454772   -1.2291721194    1.9175392963
 C   -0.7283346072   -1.5058764831    3.2031632935
 C    0.5425817007   -0.9886628729    3.3576023646
 N   -0.0856215764   -0.0197121595   -0.0310200076
 H   -0.2894660393    1.9526532656    0.9337578752
 H   -0.2765636030    1.9677320778   -0.9043291345
 H    1.8442105569    0.5825348214   -0.8800907737
 H    2.8641334038   -0.2529599817    1.2002463553
 H    2.3094248975    1.2808741619    1.8623311693
 H   -2.0591409140   -1.4881523941    1.5299142378
 H   -1.3507681568   -2.0588556514    3.8876848453
 H    1.1382154550   -1.0624335030    4.2549307769