16

 C    0.0410297638    1.4982022369   -0.0971611560
 N    1.1999758060    2.2198853372    0.3614549028
 C    2.3590332712    1.7974442779    0.5983014159
 O    3.0014220596    0.6001092444    0.4918332932
 C    2.4655564541   -0.5834542640   -0.0389870651
 C    1.4012220920   -1.4064216604    0.5956697253
 O    0.4079529750   -0.5966331620    1.2094505524
 C    0.0546403045   -0.0178730923   -0.0820876451
 C    1.1787311915   -0.7687929051   -0.7867973122
 H   -0.8113841301    1.8416871878    0.5050238767
 H   -0.1824161877    1.8163062607   -1.1263686032
 H    3.1000987963    2.5010113264    0.9786960554
 H    3.2817916113   -1.1737334407   -0.4464749566
 H    1.5073229244   -2.4299427070    0.9378118230
 H   -0.9312182753   -0.3982165465   -0.3794936875
 H    1.1288395835   -1.1832595233   -1.7853010890