16

 N    0.1399612834    1.4430042550   -0.0315084979
 C    0.0241563028    0.0236427970    0.0142532531
 C   -0.4410592590   -0.6598496886    1.2801176219
 C   -0.8820101062    0.1034000353    2.4115176752
 N   -1.2379086767    0.7028022659    3.3348864870
 C   -1.3352064088   -0.7010940356    0.0154829894
 N   -2.4748341369    0.1788500284    0.0597829228
 C   -1.4529614512   -1.9675313847   -0.6546385240
 C   -1.5574121485   -3.0138677965   -1.2412355828
 H    0.2324404112    1.7539314132   -0.9936073090
 H   -0.7019889324    1.8705533477    0.3453002828
 H    0.8229437700   -0.4962851984   -0.5037384974
 H    0.0482563718   -1.5923543502    1.5371339905
 H   -2.8503428229    0.3070175904   -0.8746531313
 H   -3.2149864603   -0.2131288434    0.6340893004
 H   -1.6552404362   -3.9391154455   -1.7534211007