20

 C   -0.1017423342    1.5483243342   -0.0252771388
 C   -0.0635313166    0.0267594243    0.0537338243
 C   -1.3963294099   -0.5707704232   -0.3776419581
 N    1.1590478106   -0.5985504827   -0.6487185182
 C    2.0711318171   -0.2608117728    0.5573075034
 C    2.6022666875   -1.6931591704    0.6230436039
 C    1.1104235535   -1.8211357264    0.3120481735
 C    0.6949422101   -0.6350711782    1.2184287974
 O    0.3630619407   -0.7623590290    2.5575989286
 H    0.8317325951    2.0127628074    0.3023980832
 H   -0.2903020906    1.8685677791   -1.0554711716
 H   -0.9120445726    1.9448763271    0.5967094598
 H   -1.6278701725   -0.2789109187   -1.4075544454
 H   -1.4046457434   -1.6616328770   -0.3260882268
 H   -2.2032831821   -0.2020124324    0.2644078493
 H    2.6196051230    0.6802993229    0.5951992047
 H    3.2883647212   -1.9903451485   -0.1738973268
 H    2.9294977375   -2.0516472077    1.6009219575
 H    0.5326770562   -2.7085035963    0.0567520673
 H    0.3249806194    0.1167148584    2.9509536227