12

 C    0.0165059698    1.5022943554   -0.0006033400
 C   -0.0595502621    0.0088025317   -0.0002199175
 N   -1.1400967129   -0.6308356140   -0.2623605063
 C   -1.0897076575   -2.0279648142   -0.2315888523
 O   -2.0424941373   -2.7357846594   -0.4608755634
 C    0.2373199364   -2.5959458260    0.1079545324
 N    1.2943518754   -1.9210184498    0.3637510901
 O    1.1445116548   -0.5296607189    0.3081518409
 H    0.7606165818    1.8407796630   -0.7279255356
 H   -0.9621200883    1.9087630709   -0.2506892961
 H    0.3326827540    1.8630195997    0.9828488599
 H    0.3525669860   -3.6753690785    0.1508391378