21

 C    0.0189355321    1.5232218957   -0.0126344137
 N    1.2622907681    0.7354208511    0.1008772291
 C   -0.0415735337    0.0440539535    0.0211455038
 C   -0.4020006441   -0.7201495615    1.2784936259
 C    0.3932733046   -2.0336065915    1.2874491749
 C    0.2879704108   -2.7963807758   -0.0224443440
 C   -1.0205749422   -3.0535803401   -0.6777916765
 N   -0.0698748676   -2.1208122540   -1.2825054402
 C   -0.4158810136   -0.6884377469   -1.2561166948
 H   -0.2419275988    2.0994883609    0.8713844880
 H   -0.1955508717    2.0244639600   -0.9542964432
 H    1.7292667077    0.7036120903   -0.8028600497
 H   -0.1521377383   -0.1273815993    2.1625781244
 H   -1.4829566910   -0.9071716995    1.3068204026
 H    1.4463769640   -1.7820081178    1.4564783804
 H    0.0834310007   -2.6803504606    2.1168185962
 H    1.0675565612   -3.5452949688   -0.1571229473
 H   -1.1951634123   -3.9737862544   -1.2306951924
 H   -1.9125569701   -2.6411818450   -0.2075510732
 H   -1.4949244904   -0.5832482515   -1.4328434831
 H    0.0863086047   -0.2053740451   -2.1055364173