15

 O    0.0504958640   -0.0125112774    0.2386154393
 C    0.0415426615    1.1863129740    0.1483239274
 O   -1.0813184732    1.9826969305    0.1965921655
 C   -0.7091400519    3.3288175259    0.0389008464
 C    0.6239305872    3.3696518943   -0.0920715926
 N    1.7001955963    4.2168737427   -0.3393968543
 C    2.9216000843    3.4622739983    0.0318404342
 C    2.5213608677    1.9814628618   -0.2015941546
 N    1.0887390340    2.0662383091   -0.0070252930
 H   -1.4953938205    4.0588279613    0.0530733235
 H    1.6329255036    5.1443317768    0.0550276466
 H    3.7660139638    3.7656217629   -0.5908088619
 H    3.1906916545    3.6152778107    1.0859641249
 H    2.7644060860    1.6498533793   -1.2175418502
 H    2.9903370828    1.3008897198    0.5115027888