21

 C   -0.0786775506    1.5611813722   -0.0066416191
 C   -0.0123496089    0.0259806907   -0.0117344331
 C   -1.4211434260   -0.5883368232   -0.0038857569
 O   -2.1841502826   -0.2716259036   -1.1588776354
 C    0.7681496122   -0.4737976450   -1.2461909780
 O    2.1373470698   -0.0943852383   -1.1751171186
 C    2.7345850682   -0.5927479299   -0.0100451941
 O    2.1337611865   -0.1006999068    1.1598516178
 C    0.7635713036   -0.4732563644    1.2248429572
 H    0.9261153331    1.9864981088    0.0125837494
 H   -0.5800108341    1.9399996533   -0.9040435157
 H   -0.6215635189    1.9289512890    0.8719107823
 H   -1.3503297178   -1.6821895235    0.0058452955
 H   -1.9482248248   -0.2888638552    0.9166083142
 H   -2.4178135098    0.6603886584   -1.1152278502
 H    0.6898486911   -1.5726494029   -1.3135468416
 H    0.3670375847   -0.0497658741   -2.1682836962
 H    2.6916456444   -1.7000448846   -0.0118508842
 H    3.7718204682   -0.2525738210   -0.0051852638
 H    0.3685564850   -0.0397239530    2.1486934331
 H    0.6805425366   -1.5717409471    1.2993165273