22

 C    0.2405828852    1.4092831558   -0.2602011420
 C    0.0904607511   -0.0865451673   -0.1269600305
 C    0.5576497985   -1.2094537821   -1.0876584084
 N   -0.0920660064   -2.0212488984    0.0479247486
 C    0.6762972966   -1.0359704682    0.9503876255
 C   -1.2221590041   -0.9356467251    0.0291786884
 C   -2.0863064680   -0.8405289407    1.2878815414
 C   -2.1883593604   -1.1347462907   -1.1527765291
 O   -2.6618206098   -2.4727722554   -1.1648312532
 H    1.2961557202    1.6940174294   -0.3283972910
 H   -0.2640764808    1.7790063154   -1.1594935237
 H   -0.1907089320    1.9270163695    0.6034828145
 H    0.0929440378   -1.3256228877   -2.0648955035
 H    1.6345865298   -1.3814035251   -1.1613116106
 H    1.7560710707   -1.2062290072    0.9293291775
 H    0.3249063767   -0.9767597614    1.9782476435
 H   -2.6244907270    0.1142397553    1.2856065660
 H   -2.8314778617   -1.6405605644    1.2603127745
 H   -1.5491985685   -0.9134217286    2.2322734812
 H   -3.0643503548   -0.4910620421   -1.0171578481
 H   -1.7485680279   -0.8629178301   -2.1201892249
 H   -1.9033491253   -3.0277807810   -0.9383769161