21

 C   -0.0993810015    1.4611344403   -0.2065822146
 C   -0.0275714583   -0.0504016028   -0.0062151182
 O    0.8008508962   -0.4195579446    1.0932921331
 C   -1.4152276449   -0.6569795502    0.1726043139
 O   -2.2710153610   -0.4698636052   -0.9846327101
 C   -2.6162485827   -1.8731223589   -1.0116152883
 C   -1.7483072776   -2.6865808377   -1.9987290505
 C   -0.7519279326   -3.0052020145   -0.8374881206
 C   -1.6283521512   -2.1857652435    0.1483769353
 H    0.9008882331    1.8756081965   -0.3583810371
 H   -0.7219510103    1.7000384862   -1.0732361554
 H   -0.5453091527    1.9473089131    0.6709352934
 H    0.4473998871   -0.5023514217   -0.8831220395
 H    0.4875877640    0.0585530216    1.8693558327
 H   -1.8824372501   -0.2009209208    1.0626255792
 H   -3.6977544835   -2.0318781251   -0.9943742988
 H   -2.2453142264   -3.5703523120   -2.4079198052
 H   -1.3595004399   -2.0850643924   -2.8234438451
 H   -0.7287122433   -4.0663874766   -0.5800392032
 H    0.2795190941   -2.6710238594   -0.9625895197
 H   -1.9059135086   -2.6564129525    1.0900128087