18

 N    0.0240722123    1.2424341379    0.3961922269
 C    0.0342883882   -0.1144769126   -0.0992825994
 C   -1.3207679583   -0.8525202418   -0.2338775487
 O   -1.0061631456   -1.1509198798   -1.6485376307
 C    0.1523237980   -0.4188440219   -1.6088001790
 O    0.8783243444   -0.1501150565   -2.5129757796
 C   -1.5730315735   -2.0815227597    0.5736466196
 C   -2.3708801095   -1.9686184184    1.8526929946
 C   -2.9639034674   -2.6614528821    0.6561062464
 H    0.9724725700    1.5955423542    0.4715279933
 H   -0.4620158133    1.8580892727   -0.2496025042
 H    0.7576046145   -0.7007969329    0.4754484100
 H   -2.1742547388   -0.1669242122   -0.1966350962
 H   -0.7489762587   -2.7898832412    0.5718701576
 H   -2.0549812375   -2.5687083420    2.6980302331
 H   -2.7587309267   -0.9924113916    2.1234051603
 H   -3.7544334865   -2.1546911579    0.1128994178
 H   -3.0601780515   -3.7407266043    0.6769948282