23

 C   -0.0584458639    1.4336732585   -0.0657038758
 C   -0.1598898322   -0.0582192237   -0.3315662951
 O    1.0980516561   -0.5199753505   -0.8011158084
 C    1.1069895230   -1.8888152510   -1.0713485780
 C    0.5777410601   -2.4724374163   -2.3464164607
 C    0.8530866490   -1.5216511368   -3.5194100318
 C    2.3903363885   -1.6291787624   -3.2413823920
 C    3.2340853852   -0.3677538086   -3.0975183079
 C    2.0952977614   -2.4967618873   -2.0057219591
 H    0.7184181555    1.6397582006    0.6760492056
 H    0.1934031611    1.9729176036   -0.9835259549
 H   -1.0105118620    1.8189714438    0.3116867501
 H   -0.4342283677   -0.5973269711    0.5904198531
 H   -0.9424508799   -0.2728726413   -1.0755951078
 H    0.9046598776   -2.5016728719   -0.1892504374
 H   -0.1337940316   -3.2901367274   -2.3565547506
 H    0.5655123309   -1.9300068328   -4.4900797873
 H    0.4207394946   -0.5219390336   -3.4157814723
 H    2.8314364293   -2.2726093775   -4.0102660730
 H    2.8137083136    0.3011022657   -2.3445844641
 H    4.2585426038   -0.6170966825   -2.7976541610
 H    3.2924453959    0.1700369068   -4.0511035328
 H    2.7121086115   -3.3299697743   -1.6854617490