17

 C    0.0128255193    1.4596530118    0.0358923939
 N   -0.0232537796    0.0075671020    0.0119289590
 C   -1.2051024079   -0.6970039718    0.0249131316
 C   -1.2066773090   -2.0442678897    0.0019336235
 C   -2.4486768987   -2.8742119405    0.0141003550
 C    0.0938815405   -2.7009428578   -0.0368480263
 N    0.2046949139   -3.9771481949   -0.0611009366
 N    1.2512331400   -1.8661665517   -0.0469605034
 N    1.1822666555   -0.6058597002   -0.0239726816
 H    1.0606647335    1.7570835490    0.0191235527
 H   -0.4983305766    1.8759588380   -0.8383747162
 H   -0.4611915391    1.8455936433    0.9443452578
 H   -2.1078730820   -0.0968738328    0.0542894359
 H   -2.4802047307   -3.5196895956   -0.8699840143
 H   -2.4434303444   -3.5491456066    0.8764744246
 H   -3.3499731787   -2.2556449946    0.0435317979
 H    1.1979094040   -4.2195380080   -0.0862547535