18

 C    0.3878626971    1.0117310687   -0.1996061906
 O   -0.3376399129   -0.0116519030    0.4692405443
 C    0.4182485318   -0.6846702895    1.4079791315
 C    0.0179772350   -2.0933470511    1.6833599783
 C    1.3011296258   -1.8349860196    0.9251218358
 N    1.6023694473   -2.1238205900   -0.4887258884
 C    3.0070444029   -2.5149791703   -0.1365244127
 C    2.7118191043   -2.1245063888    1.3280290981
 O    3.3414670752   -2.0621682847    2.3449873729
 H    1.2222505380    0.5915998318   -0.7716861034
 H   -0.3132810902    1.4998211807   -0.8798673822
 H    0.7708728094    1.7572387645    0.5125137300
 H    0.8186381472   -0.0794872457    2.2237263511
 H    0.1002184364   -2.4827489216    2.6924937634
 H   -0.8143139344   -2.4702964301    1.0972732998
 H    1.0686363401   -2.9096037169   -0.8456410239
 H    3.2420414215   -3.5785218983   -0.2584592055
 H    3.7717563457   -1.9196123662   -0.6445536685