21

 C    0.0160153477    1.5033836750    0.0912288857
 C    0.0419409850   -0.0143765034    0.0345912697
 O    0.6907782980   -0.4982598586    1.1943930490
 C    0.7715996539   -1.9042226894    1.2443683856
 C    1.4841830014   -2.3066234305    2.5462717894
 C    0.6956560169   -1.8383285283    3.7789520407
 O    1.5001934222   -2.0702219836    4.9213683851
 C    1.7153427480   -3.7483577740    2.5595042514
 C    1.8733061852   -4.9393994431    2.5314243531
 H    1.0330622937    1.9029028393    0.1357275343
 H   -0.4786625524    1.9090705896   -0.7962302401
 H   -0.5255775928    1.8456543445    0.9776937070
 H   -0.9827853963   -0.4188639417   -0.0226947016
 H    0.5739431535   -0.3600570005   -0.8677323885
 H   -0.2336519330   -2.3572198206    1.2108138977
 H    1.3344358038   -2.2963861333    0.3834058701
 H    2.4506958498   -1.7869379172    2.5696927671
 H    0.4653901108   -0.7729913679    3.6505816277
 H   -0.2536008396   -2.3945263339    3.8306919750
 H    1.0115769202   -1.7780181259    5.6960012961
 H    2.0310449940   -5.9893102566    2.5257886854