19

 C   -0.0350279939    1.5832213654   -0.0452891782
 C    0.0335945064    0.0545637356   -0.0378809600
 C   -1.3837388413   -0.5460982826    0.0548101343
 C    0.8315107705   -0.5448542473   -1.2181356175
 C    1.5282772179   -1.7919780945   -0.6312507549
 N    1.6640119349   -1.4345050945    0.7697298140
 C    0.8221253838   -0.4430170942    1.1927355579
 O    0.7011674905   -0.0474872647    2.3330595323
 H    0.9622790279    2.0258257836   -0.1350877337
 H   -0.6443914371    1.9442524982   -0.8806951717
 H   -0.4757442449    1.9404606540    0.8894307011
 H   -1.9967427976   -0.2076821209   -0.7872995396
 H   -1.3626582445   -1.6412035851    0.0374740454
 H   -1.8683008939   -0.2348733695    0.9844139981
 H    0.2042996032   -0.7907131964   -2.0786753011
 H    1.5910165076    0.1693332709   -1.5515410693
 H    0.9193497620   -2.6981373964   -0.7622154502
 H    2.5029525977   -1.9788493069   -1.0928648541
 H    2.1639751807   -1.9943015547    1.4423347773