17

 O   -0.0786017994    1.4111262039    0.0310281913
 C   -0.0370574451    0.0292803335    0.0379438190
 C   -0.2991104405   -0.8103127524   -1.1804886515
 C   -1.2003634352   -0.9502029825    0.0246263742
 C   -0.5048525480   -1.8256772059    1.0706412351
 C    0.6709959931   -0.7928238284    1.1252021565
 O    1.9790568180   -1.1906221854    0.7567575947
 C    0.7371564387   -0.0172184593    2.4383407142
 O   -0.0755181086   -0.0696357252    3.3234213370
 H    0.6289199594    1.7338819924   -0.5384229574
 H   -0.7242382931   -0.2441215307   -2.0034349767
 H    0.3759112235   -1.6114840399   -1.4678511251
 H   -2.2595438462   -0.7342117869   -0.0170283391
 H   -1.0235523190   -1.8740656453    2.0293961630
 H   -0.2164080579   -2.8265938642    0.7368101717
 H    2.2992686202   -1.8307668354    1.4023083052
 H    1.6540635402    0.6078384615    2.5155411179