20

 C   -0.4769776769    1.0854296892    2.8487791693
 C   -0.2578073101   -0.4120201951    2.7156638948
 O    0.5280362250   -0.6390459039    1.5479226162
 C    0.9080873292   -1.9763667914    1.3266258151
 C   -0.2175556863   -2.8200536410    0.7688067420
 O   -0.7584291174   -2.2379120437   -0.4028313257
 C    2.2992415171   -2.1410155781    0.7993857924
 C    1.9658149168   -2.5781079126    2.2133612892
 H   -1.0001444888    1.4790829833    1.9724398425
 H   -1.0779529888    1.3036601877    3.7365671223
 H    0.4797113543    1.6077419722    2.9380436135
 H    0.2631792610   -0.8110382788    3.5976848413
 H   -1.2227811480   -0.9345819917    2.6428937634
 H    0.1575500993   -3.8139740518    0.5031434318
 H   -0.9983465913   -2.9630761141    1.5347065411
 H   -0.7621952790   -1.2861089071   -0.2437022056
 H    2.4745036927   -2.8985283414    0.0437789233
 H    2.8848201205   -1.2360690370    0.6880521192
 H    2.3451964072   -1.9639756613    3.0223858674
 H    1.9163853433   -3.6386615236    2.4371832565