18

 N   -0.6128860615    1.2187309791   -0.2829545651
 C   -0.1410329386   -0.0577460221   -0.1718106830
 O    1.0096761684   -0.3946317457   -0.3319447948
 O   -1.1616650401   -0.9048397169    0.1163773711
 C   -0.7917842582   -2.2962732445    0.2169805010
 C   -1.9849842206   -3.0362021422    0.8251862327
 C   -2.7874716214   -3.4112771382   -0.4237079889
 O   -1.8027259193   -3.7614231659   -1.3857257689
 C   -0.6517082898   -2.9446271125   -1.1786075210
 H    0.0770607984    1.9496434705   -0.2961209865
 H   -1.5283152713    1.4339882979    0.0731443715
 H    0.1270666919   -2.3641339793    0.7987541743
 H   -1.6341538941   -3.9406788085    1.3309226874
 H   -2.5271939734   -2.4167857620    1.5418619220
 H   -3.4474126096   -4.2721338651   -0.2877203732
 H   -3.3928894035   -2.5569376563   -0.7663861723
 H   -0.5781165538   -2.1657259594   -1.9472106894
 H    0.2373666864   -3.5794534289   -1.2469019770