25

 C    0.1798913981    1.5611824414   -0.0318705237
 C    0.0568263103    0.0359665589    0.0194941894
 C   -1.3982278227   -0.4495021705   -0.0010080188
 C   -1.5049473375   -1.9795150538    0.0466714161
 C   -2.9429524793   -2.5714702914    0.0576205300
 C   -3.7196948274   -2.1901284040    1.3228233624
 C   -3.7217757584   -2.1712818946   -1.2146881636
 C   -2.7618966805   -4.0842902180   -0.0048396615
 O   -3.1353473251   -4.8739659952    0.8229381579
 H    1.2272891094    1.8779851808   -0.0145959907
 H   -0.2751012795    1.9647672200   -0.9432924797
 H   -0.3231061412    2.0280482186    0.8223051490
 H    0.5979179586   -0.4048166764   -0.8283065103
 H    0.5519632629   -0.3422966124    0.9234959990
 H   -1.9325099074   -0.0090680044    0.8499411061
 H   -1.8877093752   -0.0649748672   -0.9042698513
 H   -0.9614707812   -2.3950802312   -0.8139034356
 H   -0.9793546106   -2.3411978766    0.9407052852
 H   -3.9144331162   -1.1147166489    1.3564739046
 H   -4.6798708303   -2.7118190555    1.3563811639
 H   -3.1662212274   -2.4711816931    2.2230854903
 H   -3.1825258320   -2.4606409346   -2.1236209662
 H   -4.7051283232   -2.6521709654   -1.2371092644
 H   -3.8815179687   -1.0905634466   -1.2494251997
 H   -2.2264533556   -4.4309594098   -0.9220898883