7

 N    0.0461718643   -1.1357474523   -0.0045065423
 C   -0.0045713762    0.0182093090    0.0027451390
 C   -0.0488001393    1.4372906047    0.0114251983
 N   -1.1481198182    2.1455918499    0.0297882491
 O   -0.7248334686    3.4144961149    0.0315185318
 N    0.6829462596    3.4319886433    0.0132719279
 N    1.0784015583    2.2445317206    0.0013360062