15

 N   -0.1086710078    1.3300025379    0.1550728449
 C    0.0331649135   -0.0498947911    0.0235583465
 O    1.1198600647   -0.5776040078   -0.1229694512
 C   -1.2246958283   -0.8043469228    0.0279699452
 C   -1.4119259136   -2.1653546253    0.2035413517
 C   -2.8032262281   -2.4077648862    0.1327801954
 O   -3.4655130095   -3.5902996085    0.2669256364
 C   -3.4365923397   -1.1998374669   -0.0941558639
 N   -2.4653177152   -0.2305330521   -0.1291534435
 H    0.7756590638    1.8041128375    0.2766442428
 H   -0.8374150329    1.6606284965    0.7708779429
 H   -0.6218137232   -2.8776765452    0.3852093131
 H   -2.8180377932   -4.2924953733    0.3775658382
 H   -4.4806685746   -0.9726298890   -0.2285411158
 H   -2.6107948360    0.7090652964   -0.4566789728