16

 O   -0.0175842040    1.2965905490   -0.4354426572
 C   -0.0151132985   -0.0535591357   -0.0385234719
 C   -1.4535148500   -0.5474683939    0.1532484031
 O   -2.1978216682   -0.3454850463   -1.0770935677
 C   -2.2666113268   -1.7711487321   -1.3344119455
 C   -1.6792400340   -2.1011043639    0.0449337235
 O   -0.5514182203   -2.9243980546   -0.0062058669
 C   -2.1133580473    0.1005988974    1.2889691355
 N   -2.6335545322    0.5503560214    2.2178463116
 H   -0.5985468613    1.3538841042   -1.2047678746
 H    0.4733095060   -0.7086923755   -0.7720606904
 H    0.5418258521   -0.1193783965    0.9009408605
 H   -3.2911056851   -2.0982905851   -1.5303607780
 H   -1.6103753322   -2.0755544928   -2.1569626307
 H   -2.4216267545   -2.4571033771    0.7654325507
 H   -0.3459568436   -3.2351433184    0.8812003879