19

 O   -0.0607735408    1.3970422853    0.0766502350
 C   -0.0305941822   -0.0396319767    0.0569253498
 C    0.8731256414   -0.5963566144    1.1716219583
 C    2.2782132817   -0.6658796172    0.5003595774
 C    1.9516178633   -0.8097933724   -0.9781267027
 C    0.6623952121   -0.5360444757   -1.2058134373
 C   -0.3559595154   -0.7136457191   -2.2270331580
 C   -1.5684958909   -0.6934343695   -1.6447618795
 C   -1.4955873951   -0.4762128268   -0.1426364381
 H    0.8012276800    1.7075149695   -0.2215368653
 H    0.8456019303    0.0267227419    2.0687353905
 H    0.5570618740   -1.6087269164    1.4443430862
 H    2.8770682957    0.2328786758    0.7079188513
 H    2.8713760411   -1.5094266810    0.8707362862
 H    2.6772417326   -1.1501300979   -1.7086269066
 H   -0.1633602426   -0.9003419089   -3.2765235073
 H   -2.5071973666   -0.8580299493   -2.1626494216
 H   -1.7299804308   -1.4055852731    0.3934055491
 H   -2.1869615879    0.2930868460    0.2132114426