17

 C   -0.1148910755    1.3601925967    0.5505518462
 N    0.0467788156    0.0599918265   -0.0859275776
 C   -1.1478829518   -0.6700432162   -0.4913829031
 C   -1.3334132949   -1.9754268308    0.2819194989
 N   -0.3638497397   -3.0117622647   -0.0060579852
 C    0.7497241385   -2.7955162924   -0.5442682062
 O    1.3844088783   -1.6401616162   -0.9499620871
 C    1.3029391668   -0.3817615476   -0.3485970718
 O    2.3240386780    0.2240245375   -0.1563360748
 H    0.8710305659    1.7359454338    0.8181978532
 H   -0.5965826597    2.0719880220   -0.1304728691
 H   -0.7295520828    1.2705924943    1.4534678462
 H   -2.0045611632   -0.0157909883   -0.3110474818
 H   -1.1202970364   -0.8768401220   -1.5680338716
 H   -1.3231942649   -1.7690427533    1.3602160116
 H   -2.3251260934   -2.3881346480    0.0581113143
 H    1.4001790192   -3.6305196312   -0.7978726920