16

 C    0.1004034097    1.5286315205   -0.2974841107
 N    1.0481242613    2.3737785295    0.3901097436
 C    1.8528193840    2.0263373861    1.2910111536
 O    2.1166804971    0.8423416349    1.9051607269
 C    1.4607681758   -0.3657767404    1.6165847835
 C    1.1724179083   -0.9218075829    0.1923842329
 O    0.2513093379   -1.8657800593    0.8667774616
 C   -0.0759830001   -0.5450936048    1.4524034270
 C   -0.0282922824    0.0469823564    0.0178658858
 H   -0.8904325110    1.9863602026   -0.1656001417
 H    0.3072958132    1.6254417576   -1.3728937106
 H    2.5171939542    2.7718087543    1.7272109985
 H    1.9039297222   -1.1089341506    2.2778389503
 H    1.8608449425   -1.3317899582   -0.5473373473
 H   -0.8652016272   -0.5091820506    2.2041011495
 H   -0.8018351055   -0.3995215749   -0.6150916728