15

 N   -0.1354745081    1.2995057157    0.0658133764
 C   -0.0310781761    0.0379135265    0.0421484682
 N    1.1012131778   -0.7709808653   -0.0430217140
 C    0.8637082298   -2.1415515754   -0.0215776694
 O    1.7168318056   -2.9895133323   -0.0740473609
 C   -0.6485028091   -2.3254575028    0.0877358811
 C   -1.2063964004   -0.9114648686    0.1104436583
 C   -2.4804201084   -0.4918876335    0.7062500424
 O   -2.3281685989   -0.5979514910   -0.7087929827
 H    0.7676895971    1.7693959683   -0.0052673738
 H    2.0438339232   -0.4132570218   -0.1023856107
 H   -1.0171938579   -2.8863666516   -0.7751673993
 H   -0.8778594303   -2.9058991879    0.9853329804
 H   -3.1193032668   -1.2435724850    1.1684414199
 H   -2.5658535675    0.5235218046    1.0864809341