20

 O   -0.1838601660   -0.0615758857   -0.0530133876
 C   -0.0897699932    1.1336699867   -0.1571561301
 C    1.1973205210    1.9179406409   -0.0452425846
 C    1.4595256466    2.7657497282   -1.3072378577
 C    2.6896223787    3.6184428772   -1.1703781395
 C    2.6760077870    4.9900280588   -0.6192580301
 N    2.9592723512    4.8224148249   -2.0603345022
 C    4.4026118733    4.3932297153   -2.1259805378
 C    4.1304116577    3.1130774495   -1.2947592811
 H   -0.9892985494    1.7629857661   -0.3597157318
 H    1.1059719863    2.5896060215    0.8203855522
 H    2.0160056576    1.2193180060    0.1495916950
 H    1.5647314615    2.1038527143   -2.1760271919
 H    0.5983820447    3.4143826244   -1.5083216457
 H    1.7098858707    5.4495323940   -0.4312465040
 H    3.4740695693    5.3298855917    0.0389964494
 H    4.6881336493    4.1980118907   -3.1611249589
 H    5.0936951181    5.1276247476   -1.6990554384
 H    4.6858993518    2.9711506768   -0.3631820774
 H    4.2101717038    2.2015009710   -1.8914866778