22

 C    0.0046704342    1.5696259522   -0.1098133154
 C    0.0240888892    0.0505050914    0.0922100672
 C   -1.3679848896   -0.5679121290    0.0744565657
 C   -2.1521020660   -0.6032805988   -1.2742311988
 C   -2.6002858248   -2.0591669637   -0.9579475819
 C   -1.5289171634   -2.1007336672    0.1391873397
 C   -0.4154925865   -3.1071878664    0.2195368593
 C   -1.4437199311   -3.0102009054    1.3254913937
 H    1.0165712463    1.9865000163   -0.1015672583
 H   -0.4569371197    1.8351027918   -1.0669825079
 H   -0.5677558526    2.0667797863    0.6813075010
 H    0.6351361308   -0.4179257447   -0.6902069878
 H    0.5163452465   -0.1830474715    1.0463867186
 H   -1.9835277881   -0.0972487725    0.8530384540
 H   -2.9390201846    0.1405494257   -1.4171836793
 H   -1.4737911439   -0.5621244739   -2.1323154312
 H   -3.6174357945   -2.1049672198   -0.5548050112
 H   -2.5147544633   -2.7914969144   -1.7657802078
 H   -0.4564758271   -3.9656624871   -0.4441859071
 H    0.5904782186   -2.7577454381    0.4290100313
 H   -1.1283647696   -2.5877336514    2.2751752466
 H   -2.1779406808   -3.8050444798    1.4160227497