19

 C   -0.1515300919    1.5773819645   -0.0408830221
 C    0.0763008888    0.0817241662    0.0312576385
 O    1.1304703505   -0.4081467453   -0.8548347832
 C    1.7403438620   -1.1579644642    0.2016192930
 C    2.9068513771   -0.4503350756    0.9543482644
 O    2.6158972544    0.9444415573    0.9925994575
 C    1.9486427387    0.1079823986    1.9345775870
 C    0.7444542338   -0.6121736350    1.2544579496
 C   -0.0820755860   -1.4877855329    2.1673732392
 H    0.7600026366    2.1287617258    0.1851367927
 H   -0.4910298639    1.8519119466   -1.0449946847
 H   -0.9377424764    1.8667206805    0.6660999869
 H   -0.8587367084   -0.4437213017   -0.2162172869
 H    1.8727990484   -2.2222606822   -0.0135195386
 H    3.9474834788   -0.7404317273    1.0488031259
 H    2.0656361297    0.3514078355    2.9856963246
 H   -0.7256110251   -0.8821800978    2.8169988947
 H   -0.7243810349   -2.1637062672    1.5940510789
 H    0.5552145378   -2.0999487858    2.8157063527