18

 O   -0.0812819204   -0.0172071247    0.0146931629
 C    0.0019973866    1.1909469818    0.0304596633
 C    1.2632247380    1.9417725118    0.0007838946
 C    1.2807328368    3.2846103176    0.0207285625
 C    2.6233443423    3.9833196416   -0.0125260828
 N    3.7621862242    3.0473614454   -0.0640834746
 C    3.4655792270    1.9895127163   -1.1029473158
 C    2.6043315043    1.2393165577   -0.0538000311
 C    3.5330396575    1.9580368675    0.9592019679
 H   -0.9080228314    1.8315090678    0.0701399079
 H    0.3654557739    3.8718434608    0.0596182188
 H    2.6784685584    4.6536092871   -0.8811685689
 H    2.7358124596    4.6268757289    0.8706779285
 H    2.9764239965    2.3471122743   -2.0130495493
 H    4.3923439453    1.4685103633   -1.3589253790
 H    2.5114169519    0.1534750992   -0.0673335697
 H    4.4740244317    1.4303906762    1.1380820661
 H    3.1047538677    2.2872418774    1.9097981485