17

 O    0.1690334106    1.4582062435    0.2600187375
 C    0.0390574322    0.0692266708    0.0959839057
 C    0.1778241038   -0.7429736711    1.4024419709
 N   -1.1738390229   -1.3907706754    1.2143483508
 C   -2.1347041552   -0.2671382461    1.2183216869
 C   -1.3700295723   -0.5279788235   -0.0151025993
 C   -1.9724983450   -1.0634726214   -1.2949600818
 C   -2.2158086900    0.0278247287   -2.2406532851
 N   -2.3663524700    0.9180028745   -2.9622064030
 H   -0.0366139383    1.8872569803   -0.5784965407
 H    0.6975562485   -0.3081817047   -0.6985906275
 H    0.9681957060   -1.4944298033    1.3862589614
 H    0.2544147320   -0.1420085732    2.3126201352
 H   -3.1697755160   -0.5939179229    1.2430685149
 H   -1.9138156971    0.6186589110    1.8080675978
 H   -1.2962753844   -1.7879990358   -1.7649767948
 H   -2.9110967817   -1.5883792116   -1.0902446987