17

 O   -0.1005264215    1.4443527523    0.6538671768
 C    0.0069287229    0.1142299680    0.2352961814
 C   -0.6363323971   -0.9706737905    1.0640910647
 C   -1.2546912095   -0.5408710651   -0.2475913502
 C   -2.5664424921    0.2522824308   -0.2421535179
 C   -2.7830039679    0.9131478441   -1.5350169036
 C   -2.9406653929    1.4459452970   -2.5994246351
 C   -3.7055842793   -0.6012402442    0.1175820520
 C   -4.6233811753   -1.3119071834    0.4257709709
 H    0.4474874301    1.5565317644    1.4373196440
 H    0.9271437945   -0.1214455148   -0.2982961162
 H   -0.1660770803   -1.9457562986    1.1247110745
 H   -1.1420766496   -0.6520832104    1.9701185531
 H   -1.1623366826   -1.2234149699   -1.0852927954
 H   -2.4624285343    1.0356340984    0.5198839267
 H   -3.0873185228    1.9242974923   -3.5359162483
 H   -5.4426678022   -1.9324485703    0.6923346526