17

 O   -0.2846420819    0.2322963079   -0.2965420425
 C   -0.1537148237    1.4266450065   -0.1903725224
 C    1.1797762658    2.1017666483    0.0328839729
 C    1.5489289509    2.9665581481    1.1885139741
 C    0.7088512148    2.9039331505    2.4368045437
 N   -0.4290804682    1.9752330269    2.3158908526
 C    0.8106840131    1.5161622076    2.9689576572
 C    1.7508970717    0.7351640137    2.0571536375
 N    2.2032699557    1.6451250997    0.9730496075
 H   -0.9881466645    2.1270801105   -0.4066082140
 H    1.6007932469    2.3864311943   -0.9363005801
 H    2.1668786886    3.8480808044    1.0426606403
 H    0.6286392630    3.7769477512    3.0739492073
 H   -1.1449419285    2.1798294360    3.0080458562
 H    0.7890386541    1.3013888598    4.0332296098
 H    2.6383840294    0.4368877200    2.6246660783
 H    1.2881334428   -0.1565243953    1.6303885117