19

 C    0.4360813988    1.2439552310    0.3828560114
 O   -0.3542495207    0.4500849518   -0.4750577143
 C    0.3995633622   -0.3337254654   -1.3817375830
 C    1.0839498062   -1.5714033817   -0.7684309852
 C    0.6643489256   -2.7409801037   -1.6744052099
 O    1.1052203279   -3.8657668663   -1.6273822093
 C   -0.3658314268   -2.2192054318   -2.5950379352
 C   -0.5455307280   -0.9006945459   -2.4295177476
 C   -1.5034843164   -0.0011405876   -3.1332123223
 H    1.0703586847    0.6356614809    1.0439424450
 H    1.0858773564    1.9283812696   -0.1848626607
 H   -0.2479659376    1.8329816694    0.9980080070
 H    1.1425706271    0.3144615949   -1.8806673575
 H    2.1722638581   -1.5096267446   -0.6985667180
 H    0.6912813976   -1.7495421520    0.2383253569
 H   -0.8836757943   -2.8542023838   -3.3036259350
 H   -2.1222718139   -0.5437253327   -3.8510430848
 H   -2.1494895325    0.4970082752   -2.4028981318
 H   -0.9665473644    0.7948049627   -3.6647589258