18

 C   -0.0153621964    1.6588522890   -0.6428838571
 C   -0.0316388596    0.2314584699   -0.1557842884
 C    1.1612117841   -0.6627563658   -0.3095198579
 C    0.7197880838   -0.2024596433    1.0666247231
 O   -1.2609532050   -0.4511176219   -0.4120178658
 C   -2.3360482246   -0.1408146699    0.3325322363
 N   -2.3714270380    0.7247327803    1.2565931170
 C   -3.5185126672   -0.9875020557   -0.0932219231
 O   -4.5947052635   -0.8886102102    0.4351685574
 H    0.9812933013    2.0866572470   -0.5034540494
 H   -0.2580660295    1.7030571889   -1.7097942023
 H   -0.7330496899    2.2669645763   -0.0881501795
 H    0.9701872615   -1.6965351843   -0.5733658303
 H    2.0602852302   -0.2396499594   -0.7434653573
 H    1.3083459515    0.5437895819    1.5881388518
 H    0.2458413604   -0.9325022800    1.7112880489
 H   -3.3194601010    0.7329758536    1.6411439594
 H   -3.3157559080   -1.6969634664   -0.9197203729