18

 C    0.4118979759    1.7567752027   -0.1297285560
 C    0.0482090449    0.3030965427    0.1951619079
 C    0.8276065754   -0.1779584962    1.4450046157
 O    0.6149138931   -1.5375324950    1.7480941575
 O   -1.3608199245    0.3368658724    0.4828411359
 C   -2.0613220998   -0.8198064748    0.5724673946
 N   -3.2383915436   -0.7811366023    1.0254610082
 C    0.3649090573   -0.5768933974   -0.9393554600
 C    0.6757198256   -1.3088658092   -1.8418545148
 H    1.4712498612    1.8417793889   -0.3816560588
 H   -0.1832331151    2.1059507327   -0.9752853210
 H    0.1926085439    2.3880189180    0.7354897789
 H    1.8940958459    0.0487661985    1.3001055703
 H    0.4618673022    0.3950728467    2.3015710413
 H    0.9819386551   -2.0565196546    1.0224906145
 H   -1.5252125999   -1.6971909114    0.2058808122
 H   -3.6452578454   -1.7141070737    0.9982771236
 H    0.9323205680   -1.9374358881   -2.6596724498