18

 O    0.1163316667    0.0010170121    0.4192602737
 C    0.0885898846    1.1735077022    0.0660247097
 O    0.9482544227    2.0091367105   -0.2812786783
 C   -1.3710364902    1.8481804368    0.0400378269
 C   -1.3959539666    2.8087262047   -1.1257136109
 N   -2.7836925237    3.4804626079   -1.2022014676
 H   -2.8930727253    4.0561309788   -0.3635421291
 H   -2.8492672318    4.1032646880   -2.0102201259
 C   -3.8848148069    2.4483072638   -1.2349263653
 C   -3.6865751929    1.4891641271   -0.0551304968
 O   -2.4256364195    0.8935283774   -0.0815223098
 H   -1.4971121773    2.4082872931    0.9846224600
 H   -0.6365133270    3.5773545968   -1.0074663018
 H   -1.2676216704    2.2919520976   -2.0789048055
 H   -4.8459970201    2.9677161827   -1.2003129488
 H   -3.7814927249    1.9191372311   -2.1846491282
 H   -3.8588612709    2.0411683740    0.8882965055
 H   -4.4428705166    0.7003946853   -0.1223306677