19

 C    0.0781137310    1.3944545242    0.0132824346
 N    0.0606697703   -0.0558642473    0.0214798208
 C   -1.0808841029   -0.6284198169   -0.0592352393
 N   -2.3169269246   -0.0540001154   -0.1819848000
 C   -1.1348744518   -2.1449077041   -0.0514393304
 O   -2.2171849545   -2.6993589845   -0.0376923899
 C    0.1730518075   -2.8945451779   -0.0561838673
 C   -0.0124931861   -4.4030507969    0.0074355005
 O    1.2838718820   -4.9820169096   -0.0154371121
 H    1.1102525327    1.7506928748    0.0438557898
 H   -0.4013301446    1.8086304312   -0.8876675438
 H   -0.4453768150    1.8206948419    0.8853289540
 H   -2.4490839663    0.9050645213    0.0885245047
 H   -3.0946148711   -0.6862119553   -0.0607264361
 H    0.7356683236   -2.6130799917   -0.9540510924
 H    0.7903493682   -2.5388822939    0.7753577125
 H   -0.5615821642   -4.6722095253    0.9217596431
 H   -0.6233874104   -4.7392224265   -0.8427872681
 H    1.1832288261   -5.9376132782    0.0166714492