23

 C   -1.5166188346   -0.1827945612   -0.1133451728
 C    0.0055541279   -0.0813589134    0.0491950363
 C    0.7900783839   -0.6233321853   -1.1367307666
 C    0.7248870615    0.1736556239   -2.4360170462
 C    1.3014150343    1.5910242248   -2.3333752793
 C    2.1100106490   -1.3451341388   -0.8759775201
 O    2.5671134022   -1.5640173458    0.4231547714
 C    0.8909124145   -2.1240327551   -1.3184663884
 O    0.2987734988   -2.9250068226   -0.3192644534
 H   -1.8734916231    0.3754835695   -0.9853398655
 H   -1.8228955502   -1.2260358975   -0.2312414282
 H   -2.0270794458    0.2238334537    0.7656733104
 H    0.2935998860    0.9638887391    0.2126844782
 H    0.3094612393   -0.6119819912    0.9543369049
 H    1.2744332523   -0.3745101057   -3.2123760430
 H   -0.3140061957    0.2205913771   -2.7879239259
 H    0.7208248927    2.2177107127   -1.6501112756
 H    2.3339373798    1.5717124100   -1.9689978577
 H    1.2982371556    2.0817581856   -3.3116118734
 H    2.9299309322   -1.1836102234   -1.5711405105
 H    1.9587437920   -2.2064197959    0.8147673883
 H    0.8218614674   -2.5339731325   -2.3246103483
 H    0.6356405802   -3.8215183881   -0.4249618145