16

 O   -0.0914001277    1.5020568733   -0.1755646167
 C    0.0125475332    0.1129075528   -0.0998956663
 C    1.1340888679   -0.4662326507   -0.9601482827
 C    2.4331577725    0.0484982836   -0.5236672323
 N    3.4299969693    0.4940765167   -0.1453104921
 C   -0.3869193899   -0.5658291739    1.1677730117
 C   -1.3017326082   -0.6362576394   -0.0629084790
 C   -2.5855312424    0.1154192467   -0.0369624763
 O   -3.5965880270   -0.2816828692   -0.5599663315
 H    0.6578725448    1.8874585386    0.2958166251
 H    1.1415769727   -1.5592943364   -0.9071860020
 H    0.9744330981   -0.1828373316   -2.0060938739
 H    0.1087412405   -1.4796420300    1.4747858148
 H   -0.7176072482    0.0752037146    1.9781517109
 H   -1.3569217263   -1.5787346041   -0.5971814351
 H   -2.5507019793    1.0774407190    0.5143131853