18

 C   -0.1507941971    1.5219637036   -0.0455872045
 C    0.0290711399    0.0129304443   -0.1227726735
 C    1.2602423883   -0.5605312137   -0.9238388986
 C    1.7316722362   -1.2382581745    0.3668622988
 O    1.9124319057   -0.2000343301    1.3463460040
 C    0.5917059058   -0.7029016369    1.1271119315
 C   -0.1513214359   -1.2555577413    2.3147393009
 C   -0.8061417398   -0.2114546748    3.1080594618
 N   -1.3338855566    0.6145986018    3.7192771322
 H    0.7630283712    1.9936327929    0.3258856681
 H   -0.3739861005    1.9369277134   -1.0339051834
 H   -0.9712461547    1.7911493434    0.6269423072
 H   -0.8923463391   -0.4764536291   -0.4559821369
 H    0.9693763440   -1.2629729443   -1.7080721577
 H    1.9572016249    0.1764980134   -1.3299248654
 H    2.3103805898   -2.1450032465    0.5032179776
 H   -0.9185145470   -1.9640897381    1.9806911351
 H    0.5488833249   -1.8026269134    2.9544311529