18

 O   -0.0386034647    1.4602414229   -0.0916109004
 C    0.0914068967    0.0733049042    0.0171744022
 C    0.3942322519   -0.5507286772    1.4447854659
 C   -0.9270188868   -1.3225103382    1.3222198210
 N   -1.9934374326   -0.3005710680    1.1309290208
 C   -1.2115061045   -0.7562969429   -0.0329805200
 C   -1.7275192720   -1.8657800504   -0.9316566634
 C   -1.7959375566   -3.0477482862    0.0369449654
 C   -1.3168088981   -2.7544923151    1.2567612833
 H   -0.7986311757    1.6908358261    0.4596145539
 H    0.8232062631   -0.2458507714   -0.7291051001
 H    1.2779644757   -1.1922277290    1.4391007990
 H    0.4591565948    0.1627189075    2.2697831507
 H   -2.8935968009   -0.7748968040    1.1309939901
 H   -2.6981045650   -1.6523364327   -1.3971611072
 H   -1.0308003598   -2.0668523005   -1.7559631458
 H   -2.2363619847   -3.9993448451   -0.2443359083
 H   -1.2556670309   -3.4487313502    2.0870749629