17

 O    0.2843988915    0.7607278163   -1.0440927979
 C   -0.2897951648    0.4033954547    0.1894881615
 C   -1.4807036888   -0.4965645188    0.0388213792
 C   -2.1742998624   -0.9757220809   -1.0376579567
 C   -1.8929611410   -0.7399042957   -2.4878004530
 O   -1.9220787961    0.6771897747   -2.7507716444
 C   -3.2549438996   -1.7521664845   -0.4914823524
 C   -3.1341759677   -1.6874393009    0.8560568229
 O   -2.0604662077   -0.9193247121    1.1939485565
 H   -0.4295469307    1.0774029355   -1.6221567823
 H    0.4879366988   -0.1115642993    0.7682705858
 H   -0.5833683637    1.2851720077    0.7858720656
 H   -0.9113653526   -1.1443662196   -2.7658869540
 H   -2.6547661465   -1.2478045381   -3.0935025847
 H   -1.6856397682    0.8086057806   -3.6759382963
 H   -4.0121371860   -2.2839784339   -1.0472203897
 H   -3.6903189243   -2.1032110459    1.6793982696