15

 C    0.0316916077    1.5349014124   -0.0845119162
 C    0.1883630250    0.0380362319    0.0177408371
 N    1.3326318360   -0.5023216002    0.0865769236
 N   -1.0585903705   -0.6367337150    0.0251102605
 C   -1.2703271899   -2.0001697448    0.1077621020
 C   -2.7378043163   -2.3965216326    0.0908103542
 O   -0.3696666278   -2.8116718952    0.1868922271
 H    1.0201027180    1.9921050652   -0.0847953683
 H   -0.4936383211    1.8149896229   -1.0053377030
 H   -0.5464077227    1.9300806979    0.7592719786
 H    1.2440003424   -1.5174372193    0.1501106644
 H   -1.8804053897   -0.0556649736   -0.0368580488
 H   -3.2232018142   -2.0586301799   -0.8309652528
 H   -2.8062690151   -3.4815520838    0.1569980251
 H   -3.2730981018   -1.9479641260    0.9344540765