16

 C   -0.0489940332    1.4932363280    0.0231104191
 C    0.0018150423    0.0005553539    0.0111763968
 C   -0.0043598951   -0.8249611163   -1.0581437002
 O    0.0547331947   -2.1491644197   -0.6557882350
 C    0.0929811911   -2.1460333275    0.6871810875
 N    0.2230020983   -3.3652402283    1.3081607724
 C    0.0597687638   -0.8619234935    1.1808639093
 C    0.0705653976   -0.5012049586    2.5418538382
 C    0.0717702533   -0.2049252709    3.7120049120
 H    0.8345972904    1.9154656406    0.5144966192
 H   -0.0982220491    1.8950539701   -0.9923511010
 H   -0.9227190889    1.8553906833    0.5762233567
 H   -0.0444563910   -0.6691429097   -2.1222537563
 H   -0.2380964666   -4.1275531391    0.8304133886
 H   -0.0007034686   -3.3302799268    2.2930938842
 H    0.0857155410    0.0630167444    4.7387659285