25

 C   -0.1944369735    1.6177621753   -0.0580025096
 C    0.0379318239    0.1066292607    0.0456965466
 C    0.8087802644   -0.4906114671   -1.1502667651
 C    2.2662461481   -0.0809752236   -1.1552012977
 C    3.2585953840   -0.8514845002   -1.6008867073
 C    3.0492087898   -2.2295570255   -2.1684509892
 C    1.5617830261   -2.5271523675   -2.4166505878
 C    0.6682400728   -2.0306270773   -1.2636068188
 C    0.9689588867   -2.7727896952    0.0485916381
 H    0.7456963927    2.1772634140   -0.0988460369
 H   -0.7649221131    1.8672724721   -0.9597775521
 H   -0.7568213091    1.9883879275    0.8048388789
 H    0.5688687462   -0.1187124917    0.9783257584
 H   -0.9357916975   -0.3952244775    0.1168665814
 H    0.3419314831   -0.0677410982   -2.0554993800
 H    2.5005063630    0.9076541545   -0.7667509950
 H    4.2832282955   -0.4882406780   -1.5544807795
 H    3.6138162307   -2.3381083917   -3.1035337136
 H    3.4837066285   -2.9740700162   -1.4850709812
 H    1.2490638784   -2.0267715646   -3.3417389086
 H    1.4133728480   -3.6015123947   -2.5755568308
 H   -0.3754392326   -2.2445234505   -1.5306552455
 H    1.9611996493   -2.5253524097    0.4381240180
 H    0.2394203035   -2.5282872752    0.8256048204
 H    0.9299347110   -3.8563691096   -0.1079783427