17

 O   -0.0186197283    0.0842977766    0.7874475001
 C   -0.0442629639    1.2004850867    0.3285994552
 C   -1.2982897735    1.9757834271   -0.0282445088
 C   -2.2044342229    2.4783011258    1.0313781705
 N   -1.3174620961    3.4091656141    0.3184410215
 C   -0.1056346930    3.8130806714    1.0624665964
 C    1.1205833259    3.3529469437    0.2979788659
 C    2.0923770212    2.3919964225    0.9245553549
 N    1.0949871094    1.9330878601   -0.0228723513
 H   -1.7051894135    1.7366404147   -1.0083908942
 H   -3.2647825387    2.5900628860    0.8262247842
 H   -1.9631988949    2.2328507040    2.0637978538
 H   -0.1184801514    4.8993209125    1.1850630365
 H   -0.0823600059    3.3657713666    2.0690706791
 H    1.4699377158    3.9970350044   -0.5056593979
 H    3.1205506890    2.3622362305    0.5762154029
 H    1.9497655207    2.1229870834    1.9681822711