15

 N    0.0685267158    1.3569351521    0.1540622921
 C   -0.0260846221    0.0044935710   -0.0103696748
 C   -1.1928959943   -0.6840309561   -0.0704733538
 C   -1.2022004349   -2.1349983342   -0.0587721391
 O   -2.2124040270   -2.8162948134   -0.0136367554
 C    0.1764029677   -2.8048153302   -0.0576082664
 O    1.1957766338   -1.9996891796   -0.6292522739
 C    1.2931625850   -0.7386692741   -0.0255033544
 H    0.9066204516    1.8244037662   -0.1525334854
 H   -0.7746245241    1.9046583016    0.0802884948
 H   -2.1541105311   -0.1783785691   -0.0720927468
 H    0.4301688349   -3.0791827106    0.9818366787
 H    0.1246186777   -3.7222677139   -0.6464404556
 H    2.0370296164   -0.1731290111   -0.6000637981
 H    1.6693485807   -0.8132229784    1.0119146080