19

 O    0.0229015106    0.1715634493   -0.6754503179
 C   -0.0056397171    1.2608935705   -0.1745686351
 C   -1.1120781293    2.1284202713    0.4685408305
 C   -0.0314985379    3.2050316240    0.7136428550
 C   -0.1956117398    4.6885083164    0.5750409735
 C    0.1088597918    4.0753751012    1.9259336188
 C    1.0315419988    2.3198497283    0.0722827648
 C    2.4676675919    2.0539174059    0.4664707187
 C    2.1669104473    2.6595822960   -0.8679710595
 H   -1.9138503797    2.4044603032   -0.2233355716
 H   -1.5559491175    1.6837305379    1.3646211217
 H    0.5926823790    5.2485132653    0.0813280230
 H   -1.1928901485    5.0797308281    0.4008233759
 H   -0.6816251739    4.0501729399    2.6692162036
 H    1.1016718954    4.2235322566    2.3396231614
 H    2.8910894456    2.6893346387    1.2376504382
 H    2.7744648554    1.0140364484    0.5071853617
 H    2.2650262467    2.0399353073   -1.7531523662
 H    2.3829555309    3.7126221118   -1.0169361063