20

 C   -0.5365311623    1.0521011170    0.4976561314
 C    0.0801903893   -0.3012264648    0.1182557985
 C    1.0094787249   -0.8410544920    1.2063627870
 N   -0.9509073189   -1.2968957051   -0.1653190230
 C   -1.5745579819   -1.3352927381   -1.3599814392
 O   -1.3479236627   -0.6100680699   -2.3134208308
 N   -2.5783584264   -2.3333954513   -1.4901964291
 C   -3.0460134262   -3.2537490229   -0.5895044529
 N   -2.6077089406   -3.3708728911    0.6048473603
 H    0.2463588309    1.7989667901    0.6662897149
 H   -1.1833747314    1.4080684442   -0.3077553203
 H   -1.1315341474    0.9661233619    1.4136163690
 H    0.6465955459   -0.1683511410   -0.8092500156
 H    0.4646884700   -1.0017663696    2.1442615958
 H    1.4586910754   -1.7918545862    0.9052790471
 H    1.8134605016   -0.1277146778    1.4079907236
 H   -1.2732711471   -1.9436712576    0.5510908757
 H   -2.9960309701   -2.3126755147   -2.4070382028
 H   -3.8399556749   -3.8733342800   -1.0205857808
 H   -3.0935003080   -4.1131590211    1.0988188811