20

 O    0.0191527220    1.4262281077   -0.0859075356
 C    0.0333029244    0.0256334301    0.1142328051
 C   -1.3539594716   -0.5596967193   -0.0317489695
 C   -2.0952626245   -0.6129444109   -1.3898314967
 N   -2.8350845915   -1.8302863227   -0.8800287278
 C   -1.6413654093   -2.0739512374    0.0161972225
 C   -3.9323503412   -1.3576935676   -0.0129859161
 C   -3.5725300488   -0.0448416962    0.7337314405
 O   -2.1658674990    0.0861638414    0.9585323979
 H   -0.6878520854    1.7562179837    0.4822420368
 H    0.6984373142   -0.4042564820   -0.6417939103
 H    0.4331643965   -0.2400937694    1.1067340434
 H   -2.7125741714    0.2327725541   -1.6990175812
 H   -1.4351263940   -0.8982977053   -2.2129672835
 H   -0.9013525594   -2.6864402313   -0.5085430714
 H   -1.8667309004   -2.5072398478    0.9940141350
 H   -4.8262416510   -1.1878032557   -0.6239406516
 H   -4.1666365562   -2.1634042371    0.6901098360
 H   -3.9256363301    0.8203328315    0.1565784641
 H   -4.0538116632    0.0025071341    1.7150639624