22

 C   -0.0064485984    1.6611519235   -0.0788448263
 C   -0.0922422950    0.1313704172   -0.0215877348
 C    0.7084653385   -0.4870083023    1.1216242960
 C    0.7193387172   -2.0514262361    1.2778870780
 C   -0.0249070114   -2.9290669553    0.2796781805
 C    2.2484680171   -1.9339309785    1.0986391091
 O    3.1889888250   -2.6883590580    1.1046155966
 N    2.1689574551   -0.5728690249    0.9364506428
 C    3.2213880578    0.4117949885    0.9098946414
 H    1.0166217415    2.0046815090   -0.2598935970
 H   -0.6336961776    2.0582531442   -0.8825854586
 H   -0.3458247122    2.1112954041    0.8606892984
 H   -1.1419092533   -0.1639155872    0.1039119108
 H    0.2421972423   -0.2976036105   -0.9727188541
 H    0.4483836433    0.0206296323    2.0624401000
 H    0.4732089836   -2.3525885596    2.3011634855
 H    0.2148619428   -2.6670508713   -0.7546841815
 H    0.2591171563   -3.9748901406    0.4289728993
 H   -1.1094139889   -2.8527521758    0.4085518012
 H    4.1703011689   -0.1237967181    0.9986443790
 H    3.2318630412    0.9854405881   -0.0238096185
 H    3.1312348062    1.1145351015    1.7478936820