22

 C   -0.0375320066    1.5898396912   -0.0489541813
 C    0.0431081438    0.0609268475   -0.0331140686
 C    0.6701626650   -0.5103247476   -1.3113274196
 C    0.5557144586   -2.0373256253   -1.3272281526
 C    0.9535007845   -2.7151692969   -0.0217424069
 O    1.2496761447   -3.8954489483    0.0310020315
 N    0.9023635347   -1.9401027148    1.1067150603
 C    0.7764155837   -0.4854744210    1.2121685916
 C    2.1453819533    0.1573170446    1.4895960468
 H    0.9434039136    2.0479665851   -0.2105203482
 H   -0.6935493391    1.9257931997   -0.8580454399
 H   -0.4411845168    1.9821583874    0.8908343644
 H   -0.9829654949   -0.3285988786    0.0258324632
 H    0.1760665961   -0.0876102248   -2.1931081761
 H    1.7230200842   -0.2084047254   -1.3771178638
 H   -0.4841161385   -2.3315225005   -1.5211719639
 H    1.1549555765   -2.4927801459   -2.1192705921
 H    1.2041166635   -2.4370378601    1.9341501281
 H    0.1363569162   -0.2810262893    2.0814133342
 H    2.8218552551    0.0518497487    0.6360483428
 H    2.0462036043    1.2201210779    1.7269876221
 H    2.6190882682   -0.3306555736    2.3474275580