16

 C   -0.1062751330    1.5066257153    0.0889716860
 C    0.0822072470   -0.0183659537   -0.0031137207
 C    0.7647821080   -0.4130163056   -1.2326780693
 C    1.3088661682   -0.7011221434   -2.2636453995
 N    0.7981193694   -0.5241761041    1.1731085320
 C    2.0636806519   -0.9692113724    1.3189207493
 N    2.2995676519   -1.2785289755    2.5818894409
 C    1.1128953565   -0.9922693070    3.1810748367
 N    0.1697935486   -0.5316580483    2.3745339700
 H    0.8616321663    2.0126825833    0.0549477474
 H   -0.7153270253    1.8553649244   -0.7483230298
 H   -0.6071752419    1.7496582402    1.0279511119
 H   -0.9042232833   -0.4950642483    0.0249807875
 H    1.7847246173   -0.9680411053   -3.1754388074
 H    2.7504495153   -1.0554987528    0.4924273301
 H    0.9344828132   -1.1304348969    4.2371597646