18

 C    0.2853885165    1.5075492832   -0.2208946852
 C    0.0430609499    0.0418226290    0.0760334620
 O    0.6674971819   -0.8328656707   -0.9000738082
 C    1.3597824641   -1.5740324254    0.1210218801
 C    2.8635242070   -1.3147798610    0.1349797584
 O    3.0296854093   -0.0433126078    0.7536429991
 C    2.0521543824    0.0401720909    1.7861285000
 C    0.8036856034   -0.6535802807    1.2384812092
 H    1.3557891791    1.7222683089   -0.2638117588
 H   -0.1579525818    1.7655109060   -1.1878170862
 H   -0.1805239133    2.1393984853    0.5435428887
 H   -1.0363639447   -0.1604257907    0.1180108179
 H    1.0954473920   -2.6364402035    0.1140682777
 H    3.3736115976   -2.1030910017    0.7143022955
 H    3.2949153146   -1.2677830552   -0.8677867457
 H    2.3996289953   -0.4784624451    2.6949412473
 H    1.9129428741    1.0975033463    2.0266812468
 H    0.1782887525   -1.0955378081    2.0137985215