20

 C   -0.0228596356    1.5380048127    0.1305747716
 N   -0.0248930591    0.0929700268    0.1252183558
 C   -1.2875110017   -0.6053338815    0.4390319315
 C   -0.4883319282   -1.6340447911    1.2671615802
 O   -1.1180520204   -1.9329431044    2.4910327674
 C    0.0621782160   -2.8363123801    0.5478681612
 C    1.3620908087   -2.7145412494    0.2732783177
 C    1.9464012517   -1.3870525542    0.7103531095
 C    0.7068362534   -0.6204609011    1.1966881066
 H    0.9952950769    1.9096632692   -0.0288949442
 H   -0.6458194346    1.9136367877   -0.6886425455
 H   -0.4024674029    1.9753202870    1.0741170526
 H   -1.9588165852   -0.0353199729    1.1001833030
 H   -1.8493913048   -0.9587862162   -0.4325977220
 H   -0.5958425817   -2.6132592608    2.9304926663
 H   -0.5567385273   -3.6976572405    0.3188370530
 H    1.9597219707   -3.4704744647   -0.2263468079
 H    2.7114464944   -1.5179113404    1.4876516803
 H    2.4236060605   -0.8590729164   -0.1234217616
 H    0.8553168491   -0.0281564697    2.1090074444