19

 O    0.2831396292    1.3531246309    0.3477307062
 C    0.0820150160   -0.0275492872    0.0642992689
 C   -1.4100479161   -0.3975195333    0.0673156796
 C   -1.6308728711   -1.8656861748   -0.3040096785
 C   -2.8654766130   -2.1594696215   -1.1843597194
 O   -2.0505486147   -2.2811963987   -2.3693383513
 C   -0.8405151534   -2.3045222250   -1.5597573942
 C    0.2539330693   -1.4017697839   -2.0240256822
 C    0.7085998200   -0.4109060404   -1.2573100019
 H   -0.1320449059    1.8570609184   -0.3615207037
 H    0.5932552197   -0.5447585230    0.8874322260
 H   -1.8505415047   -0.1625170611    1.0409365720
 H   -1.9030443111    0.2428853744   -0.6760739315
 H   -1.5041235192   -2.5151113316    0.5652299927
 H   -3.3778131830   -3.1015438407   -0.9460496013
 H   -3.6091407334   -1.3591762029   -1.2754390487
 H   -0.4672577044   -3.3380471066   -1.4891528278
 H    0.7040340283   -1.6187848228   -2.9896470595
 H    1.5548642775    0.1986407500   -1.5655535855