15

 C   -0.0677980140    1.5300910169   -0.0150540203
 C    0.0013229789    0.0254160111    0.0122558199
 C    0.0771952310   -0.7145019409   -1.1788435511
 C    0.1389401046   -2.0950644671   -1.1062398835
 N    0.1309135186   -2.7821320601    0.0449478668
 C    0.0590444745   -2.0744267503    1.1642348756
 O    0.0503560964   -2.7571030216    2.3292537816
 C   -0.0075725363   -0.6768489293    1.2086636369
 H    0.8115002493    1.9535187555   -0.5127657686
 H   -0.9462685017    1.8716443993   -0.5734549346
 H   -0.1220863684    1.9481468915    0.9929049723
 H    0.0875308132   -0.2166221932   -2.1421667601
 H    0.1982984278   -2.6927259162   -2.0124474953
 H    0.1023799364   -3.6918426922    2.0850148289
 H   -0.0642846503   -0.1739006434    2.1668611315