16

 C   -0.1537164738    1.3900716989    0.1556232796
 C   -0.0376739325   -0.0941221309    0.0617250737
 O    0.5733817004   -0.7068291932   -1.1139471400
 C    0.2140466972   -1.8525363776   -0.3012941448
 C    0.5676824779   -1.1682289196    1.0528025402
 N   -0.7576411737   -1.5221581066    1.6250002746
 C   -1.3593747414   -0.9733945175    2.7271719410
 O   -2.5283124098   -0.6629702480    2.7963979555
 C   -1.1213756491   -1.2365845818    0.2143573064
 H    0.8359971109    1.8558418301    0.1372144070
 H   -0.7372975377    1.7772087393   -0.6847102755
 H   -0.6588181753    1.6686104009    1.0853487746
 H    0.4350351659   -2.8555911093   -0.6604010854
 H    1.4994206719   -1.1653351296    1.6168817092
 H   -0.6635880935   -0.9202665477    3.5899448916
 H   -2.1320065876   -1.3060577572   -0.1794759077