14

 N   -0.0173555205    1.3962626710    0.1601205519
 C    0.0509530709    0.0090997237    0.0452864655
 N   -1.0466842040   -0.7469235916    0.0167946900
 N   -0.6245901323   -2.0539722492   -0.0117270591
 C    0.7271903410   -2.1337326240   -0.0171122630
 C    1.1827275019   -0.8319462866    0.0213795323
 O    2.5467677379   -0.7885491147    0.0222900698
 C    2.9342906272   -2.1015375616   -0.0149003706
 C    1.8852774779   -2.9755447437   -0.0389979699
 H    0.6624661585    1.8759803107   -0.4153148129
 H   -0.9510190266    1.7324695046   -0.0403558580
 H   -1.3163248748   -2.7798863444   -0.0167420559
 H    4.0004846726   -2.2625634290   -0.0202224388
 H    1.9579664803   -4.0505689253   -0.0684109213