21

 C   -0.2264520987    1.3774216093    0.0492989208
 C   -0.0112129874   -0.1381191481   -0.0192216531
 O    0.6864494589   -0.5272838855   -1.2027054560
 C   -0.0750543295   -0.4375959015   -2.3899364279
 C    0.6541880039   -1.0578396413   -3.4897953189
 C    1.2340067728   -1.5581470631   -4.4147138216
 C    0.8033763709   -0.6424114144    1.1470255738
 C    0.1158486033   -1.0188397306    2.4357116924
 C    0.7200368547   -2.0863692881    1.5577201225
 H    0.7361037617    1.8961142233   -0.0016036290
 H   -0.8563234467    1.7418599626   -0.7673328103
 H   -0.7149482966    1.6444273859    0.9911046758
 H   -0.9940522455   -0.6426709225   -0.0051696298
 H   -1.0482320131   -0.9435843365   -2.2623723219
 H   -0.2977517209    0.6089657810   -2.6525960946
 H    1.7519340680   -2.0038628449   -5.2274732111
 H    1.7767833669   -0.1672770405    1.2346552319
 H    0.6072721571   -0.7739783966    3.3706538665
 H   -0.9666728507   -0.9478499433    2.4748502394
 H    0.0461304554   -2.7292175384    1.0013076104
 H    1.6270693055   -2.5781539667    1.8901954306