20

 C   -0.3496638841    1.5606024383    0.0106829695
 C    0.0404604110    0.0770656587   -0.0174809440
 N    0.7178814467   -0.2488801397   -1.2844486783
 C    2.1710855452   -0.0524534135   -1.2637388515
 C    2.8449171165   -0.9477309349   -0.2215122899
 O    3.7878897505   -1.6619437996   -0.4891592291
 C    2.2051229173   -0.9390829983    1.1229097323
 C    1.9745019686    0.4209479100    1.7799270904
 C    0.8065033764   -0.3495277256    1.2524563030
 H    0.5285329841    2.2113734432   -0.0461417034
 H   -0.9943483022    1.7929028054   -0.8403087405
 H   -0.8804005718    1.8041845097    0.9365765954
 H   -0.8889362112   -0.5026186276   -0.0273590882
 H    0.5358349406   -1.2203662192   -1.5143464550
 H    2.5943366713   -0.2936335968   -2.2418399717
 H    2.3874340386    1.0047336321   -1.0661722612
 H    2.5016222976   -1.7612503125    1.7642885817
 H    2.1194130441    0.4735223356    2.8529648523
 H    2.3152845964    1.3010700854    1.2466692682
 H    0.1843212044   -0.8138549407    2.0122821200