18

 C   -0.0228207871    1.5066379441    0.0953483371
 C   -0.0096636778    0.0217979152   -0.0240215194
 C   -0.0252559657   -0.7741856411   -1.1037406419
 C   -0.0002173875   -2.2363207300   -0.6916145269
 C    0.0322405128   -2.1266054347    0.8079534597
 C    0.0660928765   -2.8430522950    1.9793482914
 C    0.0795323540   -1.8893338480    3.0452506677
 C    0.0538308784   -0.6241852442    2.4961647723
 N    0.0250995005   -0.7849118061    1.1338471245
 H    0.8686906850    1.8693730813    0.6203498326
 H   -0.0518585574    1.9682829404   -0.8933710984
 H   -0.8953849230    1.8502574283    0.6632634637
 H   -0.0519498673   -0.4309999502   -2.1275638253
 H   -0.8812244905   -2.7792483645   -1.0591282113
 H    0.8749677882   -2.7602374378   -1.0985265885
 H    0.0798637499   -3.9174975974    2.0791821749
 H    0.1054397610   -2.1125945079    4.1012638592
 H    0.0537064200    0.3513460676    2.9539456685