20

 C   -0.0085496014    1.5650323952    0.0658407237
 C   -0.1868799882    0.0514281615   -0.0303711420
 N    0.5902492356   -0.5053385596   -1.1261489302
 C    0.1067855617   -0.2346974720   -2.5086751861
 C    0.2498319584   -1.7393136374   -2.8022457874
 O    0.1543605123   -2.4390968637   -3.7683173975
 C    0.5567063096   -1.9602732671   -1.3518989308
 C    1.4400069464   -3.0124171700   -0.7443776552
 C   -0.0428306807   -3.0511941086   -0.4889666157
 H    1.0472391737    1.8191723251    0.1949512417
 H   -0.3681763434    2.0653131847   -0.8394412210
 H   -0.5733156036    1.9652407328    0.9132172410
 H    0.1626129605   -0.4129300007    0.8995253479
 H   -1.2628432825   -0.1939183409   -0.1228910630
 H   -0.9432201687    0.0916294762   -2.5670744586
 H    0.7292627344    0.4480619630   -3.0944411251
 H    1.8732409195   -3.7420068310   -1.4205099796
 H    2.0853027349   -2.6917600057    0.0667837692
 H   -0.3951500122   -2.7681085585    0.4968834857
 H   -0.6425211065   -3.8037212035   -0.9900958172