19

 C   -0.0132591831    1.5479041948   -0.0177516475
 C   -0.0139102346    0.0245292877   -0.0163342923
 C   -1.3622491811   -0.6339089272   -0.0698662660
 C   -1.5139176099   -1.5551630318    0.8821011729
 C   -0.3057259385   -1.7049206269    1.7835026389
 C    0.6981275378   -0.6853018689    1.2047528212
 C    1.7692315633   -1.1984793911    0.2228004188
 O    1.1119729031   -1.9944112135   -0.7690369561
 C    1.1015849316   -0.5767549387   -0.9313975054
 H    1.0045804284    1.9430724896    0.0783057481
 H   -0.4346936353    1.9416518835   -0.9501665975
 H   -0.6100109462    1.9402087011    0.8117935488
 H   -2.1072641544   -0.3846704407   -0.8185950503
 H   -2.4042166427   -2.1613287832    1.0176171844
 H   -0.5551759117   -1.4971964345    2.8316075486
 H    0.0870870114   -2.7288142027    1.7523570424
 H    1.1026732657    0.0131045830    1.9403873934
 H    2.8173293565   -1.4085546707    0.4062875577
 H    1.5003163198   -0.1783481600   -1.8589027701