18

 C   -0.0801422104    1.4784683634    0.3263450679
 C   -0.0526736689   -0.0010110240   -0.0155868047
 O   -1.3790007499   -0.4916735424    0.0161991387
 C   -1.4512801186   -1.8696335800   -0.2913995756
 C   -2.8305948043   -2.3314858032   -0.2358837955
 C   -3.9608377465   -2.7407074595   -0.1905379850
 C   -5.3366681445   -3.2162265048   -0.1610693092
 O   -5.5864623596   -3.8997293933    1.0612529032
 H    0.9327941861    1.8917423262    0.3114270030
 H   -0.6910039288    2.0271812615   -0.3958944206
 H   -0.5051399052    1.6332354071    1.3219269773
 H    0.3887686804   -0.1608478060   -1.0146074818
 H    0.5751907108   -0.5544640493    0.7038671953
 H   -1.0340294876   -2.0619717963   -1.2957915812
 H   -0.8396405212   -2.4562696023    0.4165587160
 H   -6.0111796229   -2.3527956032   -0.2818123060
 H   -5.5071743074   -3.8754327883   -1.0281742087
 H   -6.5057445114   -4.1851658556    1.0466253272