19

 C    0.2108837117    1.4859972783    0.0974999385
 C   -0.0118994733   -0.0115827675    0.0554828318
 O    0.8923082201   -0.6982481819   -0.8808226988
 C    1.2275858531   -1.7014544585    0.1193174112
 C    2.6625366701   -1.8978662410    0.6707909762
 O    3.4567415994   -0.8101184635    0.2436560439
 C    2.3851143422   -1.8419907194    2.2174658892
 C    1.2228073866   -0.8528751228    2.3208762023
 C    0.5760141537   -0.8592878628    1.1621168646
 H    1.2555338718    1.6976693652    0.3366301817
 H   -0.0276384893    1.9312658329   -0.8732706969
 H   -0.4344791302    1.9458793844    0.8536688214
 H   -1.0525787705   -0.2516899716   -0.2039413770
 H    0.7662056646   -2.6657564460   -0.1350577409
 H    3.1098079648   -2.8562382405    0.3684808075
 H    4.3217631096   -0.8999348318    0.6556278336
 H    2.1441459075   -2.8390724909    2.6115581112
 H    3.2729387316   -1.4962347699    2.7605969963
 H    1.0761705866   -0.1905173728    3.1653000239