18

 C    0.2209661428    1.2268162985   -0.3709448036
 C    0.4333299450   -0.1847226608    0.1124898429
 O    1.7442554127   -0.5692586243    0.5188656931
 C    0.7129946777   -0.5628993709    1.5232485509
 C    0.8283819143    0.4449385679    2.6421747780
 C    0.2499135970   -1.9405648962    1.9653186330
 C    0.7564261462   -3.1352326844    1.1833109988
 O   -0.4772033529   -2.0529628597    2.9272668035
 H    0.7587942246    1.9553043332    0.2370044641
 H    0.5758774089    1.3197603460   -1.4027491584
 H   -0.8455930675    1.4747033132   -0.3605189587
 H   -0.0682325569   -0.9360831517   -0.5019698835
 H    1.0740571624    1.4396839382    2.2705763044
 H   -0.1110681688    0.4815199116    3.1975911033
 H    1.6135455492    0.1381448866    3.3404566582
 H    0.5645083251   -3.0346198035    0.1112331865
 H    1.8437282121   -3.2061070631    1.2927935938
 H    0.2818786282   -4.0389758607    1.5665265635