15

 C   -0.0424052548    1.5128399522    0.0941836144
 O    1.2429509358    1.9510666208   -0.3744365209
 C    2.1352868049    0.8546747698   -0.6302677438
 C    1.3060875690   -0.3687496089   -0.4069538163
 C    1.3430972941   -1.7389194411   -0.4599361412
 N    0.0962872373   -2.1787866541   -0.0693158061
 C   -0.7264593579   -1.1134361210    0.2285417525
 C    0.0164607074    0.0210150760    0.0220654635
 H   -0.2053544034    1.8891669577    1.1156509621
 H   -0.8180973608    1.9552237477   -0.5466607966
 H    2.5179934949    0.9469549748   -1.6564759053
 H    2.9981135113    0.9209809294    0.0499554233
 H    2.1163053178   -2.4387520882   -0.7321888948
 H   -0.1783932993   -3.1442373217   -0.0178888199
 H   -1.7423995740   -1.2725334811    0.5514836218