21

 O    0.1284540844    1.4422620623    0.2137147923
 C    0.0461417110    0.0453424954    0.0149965192
 C   -1.3887355806   -0.4259637401   -0.0611113627
 C   -2.3924405740    0.4528531967   -0.0513635009
 C   -3.8812172065    0.2234424243   -0.0817169928
 C   -4.3643305524   -1.2050290839    0.2207912204
 C   -3.8863975108   -2.2109585494   -0.7944885484
 C   -2.6034996606   -2.5239521885   -0.9574167004
 C   -1.4791882745   -1.9434028439   -0.1297720030
 H    1.0543388047    1.6950531257    0.1683728325
 H    0.5628427472   -0.2538568465   -0.9152399620
 H    0.5518310944   -0.5016507888    0.8322464044
 H   -2.1048382570    1.4998475115   -0.0079383481
 H   -4.3420253581    0.9110720561    0.6410679194
 H   -4.2710830830    0.5360132294   -1.0622546952
 H   -4.0100413337   -1.4883552058    1.2217571101
 H   -5.4579549204   -1.2075218179    0.2688053162
 H   -4.6330071333   -2.6809163889   -1.4300929892
 H   -2.3227276527   -3.2528220366   -1.7135104333
 H   -0.5257509377   -2.3216509794   -0.5184675694
 H   -1.5365005764   -2.3429860320    0.8963737908