19

 C   -0.1212313310    1.4552816842    0.1925252406
 C   -0.0243634121   -0.0395811086    0.1339549289
 C    0.2190016560   -0.9721902125   -1.1007827843
 C   -0.0469003041   -1.8902287078    0.1210885663
 C    0.8999615110   -0.9926073901    0.9520689367
 N   -1.1661981853   -0.9595583819    0.5616409914
 C   -2.3929188656   -0.9048895975   -0.1092083601
 N   -3.0390319901   -2.1275760288   -0.1641292422
 O   -2.8732928622    0.1159567751   -0.5667778857
 H    0.8203889318    1.9043748462   -0.1402820698
 H   -0.9358395083    1.8051048002   -0.4438551953
 H   -0.3165641944    1.7858567564    1.2175370596
 H   -0.5480576818   -0.9511915526   -1.8766375122
 H    1.2278122293   -0.9842714829   -1.5228649880
 H   -0.1589091383   -2.9738251918    0.1537757638
 H    1.9543006158   -1.0045743149    0.6715048025
 H    0.7426407798   -0.9981243454    2.0314591361
 H   -2.8058389258   -2.8074285272    0.5429631958
 H   -4.0214927548   -2.0575025703   -0.3819994641