18

 C   -0.0802061462    1.6626111872    0.0834491010
 C   -0.0750316905    0.1374840690    0.1270937065
 O    0.5066709494   -0.2762743916    1.3600202594
 C   -1.4537036427   -0.4538777317    0.0131963747
 N   -2.4710845670   -0.2103900809   -1.0621985550
 C   -3.1644609543   -1.1795235105   -0.1462930476
 C   -1.8505101049   -1.9623391350    0.1066360440
 O   -1.9651917331   -1.9573879161    1.5648579841
 C   -2.5014530592   -0.6528449295    1.1669656419
 H    0.9346552974    2.0356912236    0.2441347673
 H   -0.4324940449    2.0240978877   -0.8877533324
 H   -0.7202951964    2.0690660225    0.8729959788
 H    0.5269603070   -0.2369325903   -0.7176569046
 H    0.0354472323   -1.0592287997    1.6748081876
 H   -2.8771195965    0.7230515400   -0.9601448314
 H   -4.1719110702   -1.5588215713   -0.3147268080
 H   -1.4365701937   -2.8370666282   -0.3920287449
 H   -2.8658584163    0.0225628148    1.9415232487