21

 C   -0.0624935073    1.4515559916    0.9174804185
 O   -0.0894401072    0.0562739337    1.0928405018
 C    0.7727329042   -0.6274238780    0.2088281757
 C    0.6614715752   -2.1033683415    0.4467029679
 C   -0.6026294156   -2.7872787757    0.8828817164
 C    0.6257779296   -2.8617696122    1.7599658308
 C    1.7286986064   -3.8259386959    1.2387170649
 C    1.3773445489   -4.5325089788   -0.0415759752
 C    1.7586977518   -3.0769678762   -0.0837507652
 H   -0.3749408792    1.7424550011   -0.0981003131
 H   -0.7590553808    1.8856698311    1.6389413091
 H    0.9415156677    1.8675472176    1.0981350323
 H    0.5164467015   -0.3847680958   -0.8396881021
 H    1.8168334925   -0.2984372923    0.3633874394
 H   -1.3492804618   -2.0935944110    1.2547424900
 H   -1.0198920793   -3.6492181923    0.3738413164
 H    0.6320614847   -2.4499844575    2.7606889658
 H    2.5669829796   -4.1337148147    1.8503461205
 H    2.1556358165   -5.1977395418   -0.4049366540
 H    0.3767639116   -4.8856906181   -0.2636485520
 H    2.6201101309   -2.7254429835   -0.6383400678