19

 C   -0.1511486588    1.5586115339   -0.1119522797
 C   -0.0206762437    0.0402394789   -0.0465151405
 O    0.9598744167   -0.4313436510   -0.9752368348
 C    2.0316450694   -0.9630347133   -0.2377427366
 O    1.4859740347   -1.4551575615    0.9702755910
 C    0.4383312401   -0.5630936397    1.3239584727
 C    0.8851551261    0.4479491412    2.3641501849
 C    2.0390864019    0.1970964042    3.2338705778
 O    2.1277662462    1.1115809545    2.1324889527
 H    0.7771424019    2.0522775596    0.1840443247
 H   -0.3946373246    1.8559415669   -1.1352155044
 H   -0.9580372944    1.9095025646    0.5408599729
 H   -0.9741466661   -0.4163209858   -0.3380244176
 H    2.4700571240   -1.8003305208   -0.7897847955
 H    2.7893434430   -0.1935695768   -0.0278706205
 H   -0.3671868906   -1.1606277684    1.7676197060
 H    0.0905500885    1.0956237952    2.7395634000
 H    2.0787044246    0.6568496355    4.2199077420
 H    2.5975175210   -0.7261814972    3.1080167349