21

 C   -0.2155800033    1.6026347514    0.0644606967
 C    0.0439075320    0.1091308731    0.0935051317
 C    1.3427024584   -0.5882049888   -0.2499515824
 C    2.7011933636    0.1201287820   -0.1509837842
 C    2.9296788426    0.3966665878    1.3318932639
 O    2.0165118603    1.3320429906    1.9182830512
 C    1.7563105935   -0.0689631799    2.0897313215
 C    0.7524785765   -0.7183023360    1.1549321979
 C    0.1173572915   -1.9935608343    1.6650894133
 H    0.6595458271    2.1898430465    0.3298359606
 H   -0.5485959977    1.8934079487   -0.9388689595
 H   -1.0154713634    1.8691006859    0.7644643266
 H   -0.8079521879   -0.4431157632   -0.3043051544
 H    1.2841477622   -1.4220106567   -0.9435410992
 H    3.4890224155   -0.5482167364   -0.5156528167
 H    2.7623456820    1.0398936275   -0.7436689655
 H    3.9394464332    0.4330365277    1.7356349466
 H    1.8116627419   -0.4191864082    3.1180369283
 H   -0.5760373338   -1.7948766992    2.4911746134
 H   -0.4473738918   -2.4929479642    0.8721443456
 H    0.8716816777   -2.7020186644    2.0286011347