13

 N    0.0745326496   -3.6663971194    0.3286517045
 C    0.0525853181   -2.5112214651    0.2079985577
 C    0.0248025568   -1.1540292904    0.0626808606
 C   -0.0060515018    0.0463723385   -0.0663567828
 C   -0.0211099025    1.4912408434   -0.2340575463
 C    1.3768254358    2.0942006405   -0.2651163976
 C    1.6189726200    3.4589862773    0.2141370296
 O    1.9935153545    2.3202406487    0.9943490196
 H   -0.5432715549    1.7398094010   -1.1677732384
 H   -0.5879351399    1.9501905085    0.5846354291
 H    2.0371371724    1.6803172522   -1.0270943484
 H    2.4428026805    4.0378749814   -0.1989055362
 H    0.7904569513    4.0442537632    0.6110168186