19

 C    0.0117728565    1.4801733048   -0.1302495846
 C   -0.0316661367   -0.0341998089   -0.0796516757
 O    0.6274296992   -0.5254236908   -1.2658234054
 C    0.6899401033   -1.8465301256   -1.3854045184
 O    0.2329393729   -2.6353772773   -0.5858045161
 C    1.4074818150   -2.3031042139   -2.6398725629
 N    1.3138048706   -3.6639684265   -2.7982292902
 N    1.9769600449   -1.4526346477   -3.4011105786
 C    2.6433508843   -1.9722150247   -4.5803838747
 H    1.0441843393    1.8389181662   -0.1547761100
 H   -0.5033560163    1.8548543766   -1.0188219992
 H   -0.4790181306    1.8938526743    0.7557591733
 H    0.4832132281   -0.4332962858    0.8000211582
 H   -1.0565829296   -0.4181681137   -0.0618113331
 H    0.9839810346   -4.1682734857   -1.9888766946
 H    1.9798396180   -4.1295495411   -3.3906110458
 H    3.0520664220   -1.1449744380   -5.1651820162
 H    3.4819669019   -2.6415715024   -4.3243636094
 H    1.9580813025   -2.5429359296   -5.2268981866