21

 C   -0.3566012124    1.4707820797   -0.0213646103
 C   -0.2067616536   -0.0416535228   -0.2009076345
 C    1.0288287697   -0.4290144165   -1.0252137763
 C    1.1501689428   -1.9268338041   -1.1970074098
 N    0.3521909549   -2.5538408204   -2.2686414147
 C    1.8289441802   -2.6215081601   -2.3248201837
 C    2.4407296554   -1.9423141718   -3.5286996079
 O    2.1085845743   -2.6383615633   -4.7190956846
 H    0.5106061694    1.8978645631    0.4948284905
 H   -0.4456312496    1.9765303167   -0.9892631425
 H   -1.2470877579    1.7168913330    0.5653744313
 H   -0.1522349214   -0.5253782528    0.7836995952
 H   -1.0973981831   -0.4487667324   -0.6947971816
 H    0.9704088704    0.0526474640   -2.0062266993
 H    1.9354142683   -0.0475683220   -0.5354551299
 H    1.1833343612   -2.4669437966   -0.2495401217
 H   -0.0337111881   -3.4408150465   -1.9584516995
 H    2.2793005860   -3.5858518136   -2.0931601413
 H    2.1213449533   -0.8925932895   -3.5825518309
 H    3.5336013750   -1.9541533443   -3.4568691967
 H    1.1455386352   -2.6987114099   -4.7218840921