19

 C    0.5906092236    1.0224494970   -0.3885458156
 O    0.5626772356   -0.3694735787   -0.0921681828
 C    0.6383865677   -0.6542425404    1.2954584767
 C    0.5365803413   -2.1813339698    1.4802809727
 C    1.9557530177   -2.6326802013    1.7948683981
 C    3.0562035584   -2.2289394209    0.8220856531
 O    2.8549737916   -1.8965378367   -0.5066561094
 C    2.7359377959   -1.3500795191    2.0071838588
 O    1.8738097019   -0.2417353874    1.8371909470
 H    1.5247407627    1.4819158531   -0.0500092631
 H    0.5031503861    1.1170974269   -1.4723286220
 H   -0.2560839210    1.5352440015    0.0884452849
 H   -0.1464936344   -0.0787235227    1.8041606758
 H   -0.1256278953   -2.4155392450    2.3179408830
 H    0.1162911887   -2.6306058808    0.5769115282
 H    2.0857436854   -3.5051455073    2.4252645961
 H    3.9763261918   -2.7979701453    0.9260375784
 H    2.0777050783   -1.3174523168   -0.5781614131
 H    3.4450823440   -1.1794001264    2.8096973231