20

 C    0.0026573666    1.5260941129    0.0714120475
 C   -0.0348009243    0.0323332382    0.0064338885
 C   -0.0670378429   -0.7330020850   -1.0862797042
 C   -0.0129798640   -2.2142284822   -0.7724541872
 C   -0.9765953184   -3.0657293652   -1.6020252196
 O    1.3283489454   -2.7205682482   -0.9363243424
 C   -0.3049058290   -2.2406592283    0.7468382728
 C    0.0046366255   -0.8170951354    1.2607033082
 H    0.9064139794    1.8734801167    0.5885633934
 H   -0.0144131355    1.9782377280   -0.9239483060
 H   -0.8490691569    1.9189293883    0.6412152080
 H   -0.0733327827   -0.3608013955   -2.1074398963
 H   -0.7252191530   -3.0082455175   -2.6680224590
 H   -0.9132506211   -4.1151837377   -1.2982583290
 H   -2.0104773318   -2.7257375833   -1.4839893176
 H    1.6036204976   -2.5280397448   -1.8390965083
 H   -1.3617589038   -2.4720206793    0.9092810882
 H    0.2874960188   -3.0194190120    1.2318515978
 H    0.9957442650   -0.7518618075    1.7298555598
 H   -0.7138455948   -0.4774815822    2.0166040954