17

 C   -0.0337380114    1.5622033341    0.0607381527
 C    1.5170019986    1.4862795914   -0.0041186667
 O    2.0857656010    1.3196128990    1.2908058916
 C    1.6639616243    0.1223522100    1.8973903169
 C    1.8376925532   -1.1424217724    1.1122576153
 O    2.2182350550   -0.9267151321   -0.2273808534
 C    1.3637501054    0.0909075987   -0.6941157525
 C   -0.0233142934    0.0099665347    0.0232935558
 C    0.4344293217   -0.5851578825    1.3480332639
 H   -0.4607262589    2.0543449275    0.9363409326
 H   -0.4557729991    1.9934443214   -0.8511512535
 H    2.0820182590    2.2802269836   -0.4938262634
 H    1.8465528421    0.1378374010    2.9656210289
 H    2.2236124254   -2.0664651267    1.5245679881
 H    1.3764235987    0.1124890467   -1.7838481845
 H   -0.8496611583   -0.5356533189   -0.4340467799
 H   -0.2755711531   -1.0551268455    2.0176945580