17

 C    0.0328805763    1.5163978978    0.0114188536
 O    1.1937139087    0.6754753556    0.0157103508
 C   -0.0935091968    0.0575778483    0.0121233898
 C   -0.5163234586   -0.8119338981    1.2094263708
 C   -1.0739556428   -2.0123602345    0.4507130369
 C   -0.2153642736   -2.2843793620   -0.8218065929
 O   -1.4030447671   -2.7167171067   -1.5715536811
 C   -1.8242845623   -1.5244642209   -0.8270840948
 C   -0.4923271594   -0.7881670592   -1.1682171770
 H   -0.1438418785    2.0720694211    0.9320164051
 H   -0.1331616143    2.0793403058   -0.9068063663
 H    0.3488885419   -1.0596149553    1.8315472319
 H   -1.2660207017   -0.3285969476    1.8439720102
 H   -1.4799685501   -2.8689190209    0.9861322609
 H    0.7028207454   -2.8604538574   -0.9356451259
 H   -2.8532812581   -1.1826515519   -0.9445900137
 H   -0.3176269290   -0.4331484742   -2.1817681085