15

 O   -0.1187741560    1.4212670222   -0.4063010233
 C    0.0077111656    0.1057661869   -0.0290275649
 C    0.6660316720   -0.9915422398   -0.8683535081
 O   -0.3527207908   -1.9518860809   -0.4606273818
 C   -1.0498781497   -0.9497020623    0.2654177846
 C   -0.1835699396   -0.3982505552    1.3736172134
 O    0.8276104946   -1.1409669863    2.0089683897
 C    0.5126257750   -2.3969482493    2.4229226244
 O    1.3076988494   -3.0966303351    2.9693662867
 H    0.5577838379    1.9399177219    0.0442207727
 H    0.5952480573   -0.7930739566   -1.9416043013
 H    1.6744035541   -1.3117841752   -0.5912161170
 H   -2.1334669092   -0.9653252481    0.2659332772
 H   -0.6880519214    0.3105848362    2.0268561142
 H   -0.5337486092   -2.6677249984    2.2037907736