15

 C    0.0608234005    1.4824293665   -0.0203084535
 C    1.3199141214    0.6856031087    0.0395175649
 N   -0.0250171200    0.0180293871   -0.0291118433
 C   -0.1861649369   -0.6064315552   -1.3733702850
 C    1.1041439146   -0.2648057776   -2.0570178385
 C    1.9614930830    0.4307881057   -1.2711792573
 C    3.0814754708    0.6246736327   -2.1152571753
 N    2.8913128325    0.0918190333   -3.3051404128
 O    1.6006273765   -0.4805521303   -3.2710330358
 H   -0.3384990321    1.9449774470    0.8785014738
 H   -0.1338159851    2.0265104323   -0.9427728669
 H    1.8680826019    0.5763213433    0.9698517972
 H   -0.3268132326   -1.6870264757   -1.2553711716
 H   -1.0721275410   -0.2100346524   -1.8808627805
 H    4.0219575666    1.1232120546   -1.9268248854