23

 C    0.0073330896    1.4569656024   -0.3225085775
 C    0.0268023464    0.0343246369    0.2488816218
 C   -1.3332153970   -0.6357584013    0.1605364437
 C   -1.9406126388   -1.2420471651   -1.0773120938
 C   -0.8834175065   -1.9841614075   -1.9010371779
 C   -0.6342954717   -2.9142666875   -0.6652146990
 O    0.6601129412   -3.0179334370   -0.1032035452
 C   -1.6367671348   -2.1144410527    0.1643284980
 C   -2.5606170644   -2.7480534188    1.1678613159
 H    0.9864452544    1.9373922796   -0.2280616781
 H   -0.2643836295    1.4514514739   -1.3837806399
 H   -0.7233391099    2.0862388181    0.1987405925
 H    0.7846024828   -0.5682869566   -0.2553715567
 H    0.3313011851    0.0649223943    1.3029481732
 H   -2.0890377055   -0.1013332421    0.7383368731
 H   -2.9111092508   -0.9371216853   -1.4516434894
 H   -1.2892831202   -2.5251715076   -2.7592018122
 H   -0.0252093957   -1.3921710309   -2.2335067118
 H   -1.0414770821   -3.9156680487   -0.8664379301
 H    1.1912197279   -3.5836798113   -0.6728647206
 H   -2.0206993083   -3.0275498212    2.0806081472
 H   -3.3627479809   -2.0613048464    1.4576190481
 H   -3.0268510411   -3.6566394151    0.7682021987