17

 O   -0.0179112575    1.3940002167    0.0309258816
 C   -0.0534925395    0.0069429067    0.0642154953
 C   -0.3745360358   -0.8019072141    1.2666152569
 C   -1.4333297685   -0.0971061745    2.1207858504
 C   -2.4037914110   -0.0756607710    0.9082674489
 O   -2.7861447360    1.2430697090    0.5240941788
 C   -1.3609802981   -0.7695927698    0.0301587435
 C   -1.6688643353   -1.7878692290   -0.9733749162
 O   -2.7919332446   -2.0370658928   -1.3539776951
 H   -0.9272879201    1.7171903134    0.1278653265
 H    0.7202981771   -0.4239938108   -0.5685463767
 H    0.2296621572   -1.6457336395    1.5777872285
 H   -1.8076531998   -0.6976026907    2.9500090953
 H   -1.1399735458    0.8897432193    2.4873699677
 H   -3.2855353820   -0.7060303649    1.0549695415
 H   -3.3412580971    1.1729726498   -0.2611040322
 H   -0.7866291433   -2.3313731579   -1.3827414048