21

 C   -0.0381118688    1.5208224877    0.0439606117
 C    0.0403805263    0.0111902840    0.0527904996
 C    0.9073698256   -0.7949786483   -0.9822430042
 C    0.7414377340   -1.9173286662    0.1104854901
 O    1.5177590034   -3.0721872918    0.1672986173
 C    0.8399832066   -0.7626950823    1.1437648896
 C   -0.7639240212   -2.2025012873   -0.0133232898
 C   -1.7186194850   -1.7178820252    1.0485213132
 C   -1.2865659619   -0.7818252818   -0.0550122719
 H    0.9579891451    1.9743396600    0.0797094666
 H   -0.5380520088    1.8845273009   -0.8613489950
 H   -0.6064638635    1.8900720597    0.9050670816
 H    0.4774924293   -0.9814019509   -1.9705287058
 H    1.9335214504   -0.4209507649   -1.0705117276
 H    2.4431357611   -2.8117749271    0.2147189562
 H    1.8632575638   -0.3819767705    1.2150468122
 H    0.4302128222   -0.8837938660    2.1471578358
 H   -1.0676674885   -2.9688036422   -0.7169580546
 H   -2.7331744458   -2.0950097738    0.9596236922
 H   -1.4069114341   -1.5772984594    2.0763330482
 H   -2.0124878704   -0.4528551547   -0.7913580753