16

 C   -0.0206051942    1.4616788117    0.0736201236
 C   -0.0272462559   -0.0282068558   -0.0579830073
 C    0.6450793944   -0.9429012211   -1.1163744146
 C    0.0983922691   -1.8156387332    0.0305098431
 O    0.6360617590   -0.8407144842    1.0028468500
 C   -1.2430305532   -1.0254274587   -0.0087662765
 C   -2.0930429859   -1.0278554476    1.2272556064
 O   -3.3001025671   -1.0654392605    1.1992234125
 H    1.0077341799    1.8351904445    0.0833755669
 H   -0.5478102708    1.9164988995   -0.7705157935
 H   -0.5136695488    1.7738003185    0.9987502983
 H    0.1765445075   -1.0236262351   -2.1000332015
 H    1.7326506263   -0.8693384419   -1.1586591018
 H    0.2550280140   -2.8729914606    0.2407446336
 H   -1.8540112605   -1.1092025999   -0.9105045052
 H   -1.5324653239   -0.9908343955    2.1818942261