17

 C   -0.0544873461    1.5242865525   -0.0477104464
 C    1.4995570680    1.5104590580   -0.0479263299
 C    1.4304228776    0.0933921523    0.5759382981
 C   -0.0317138962   -0.0247454419    0.0756895657
 N    2.3936691440   -0.9025690001    0.1395235181
 N    3.1569730936   -1.5963553282    0.9789676113
 C    3.8483703212   -2.3534491990    0.1360384525
 N    3.5218912739   -2.1315206331   -1.1561574948
 N    2.5935125176   -1.2052576688   -1.1363359237
 H   -0.4597102523    2.0006657406    0.8486885632
 H   -0.5488975368    1.9469412883   -0.9230878920
 H    1.9010609802    1.4593449352   -1.0620579218
 H    2.0320527447    2.2778972308    0.5168826729
 H    1.5036057766    0.1079198207    1.6627490693
 H   -0.7482491516   -0.5095506820    0.7413192622
 H   -0.0598146319   -0.5065702333   -0.9037664185
 H    4.5903733076   -3.0675166620    0.4541856137