19

 C    0.1307858108    1.5387350178   -0.0338604659
 C    0.0021745761    0.0164489819    0.0497178764
 C   -1.4695427031   -0.5103039109    0.0476318566
 C   -2.2427872973   -0.0336931318   -1.2082353765
 O   -1.4590584269   -0.3314429943   -2.3522676057
 C   -1.3654729974   -2.0445127727   -0.0027414734
 O   -1.5603201909   -2.7853936098    0.9217263545
 C   -2.1883211452   -0.0689703006    1.2379089447
 C   -2.7924773081    0.3212968238    2.2002791485
 H    1.1802290810    1.8308220062    0.0680608994
 H   -0.2235358333    1.9162269858   -0.9971269644
 H   -0.4356420012    2.0290447098    0.7632149392
 H    0.5253356959   -0.4430700382   -0.7944039249
 H    0.4743433340   -0.3499926847    0.9669302377
 H   -3.2170632906   -0.5431355279   -1.2404905210
 H   -2.4356816574    1.0432523575   -1.1171668726
 H   -1.9769520307   -0.1292103718   -3.1366801867
 H   -1.0588670055   -2.4177039402   -1.0021770680
 H   -3.3228619702    0.6460750399    3.0612137220