16

 C    0.0094546143    1.5613335490   -0.0354894801
 C   -0.0207971186    0.0379092416    0.0807635607
 N   -1.3885966217   -0.4989136966    0.0743028612
 C   -2.0043225772   -0.8844362916    1.2050344808
 N   -3.2176946997   -1.3568042793    1.2618380134
 C   -3.8307715450   -1.4356774554    0.0427556628
 N   -3.3525497288   -1.1056438091   -1.1212127846
 C   -2.0706198175   -0.5959835884   -1.1858679552
 O   -1.5048256191   -0.2411828217   -2.1941256227
 H    1.0465857478    1.9086994095   -0.0323972223
 H   -0.4579896785    1.8769598694   -0.9699568145
 H   -0.5123566331    2.0330538033    0.8028340608
 H    0.4994132951   -0.4157396079   -0.7648609162
 H    0.4559764938   -0.2984585522    1.0061607169
 H   -1.4244158029   -0.7880466483    2.1215920083
 H   -4.8457622288   -1.8295102321    0.0647403806