21

 C    0.5939243557    1.4043442188   -0.3264687580
 O    0.9145111022    0.0357960188   -0.4075406368
 C   -0.1279680129   -0.7413097967   -0.9556080345
 C    0.2952924638   -2.2146904537   -0.9478635677
 O   -0.8508696423   -2.9980754872   -1.2788053609
 C   -0.5713397132   -3.8353093741   -2.4002331544
 C    0.8373296364   -3.5012470069   -2.7913798902
 C    1.3486940671   -2.5885684904   -1.9686781525
 C    2.7230383812   -2.0011164608   -1.9602070959
 H    0.3946909004    1.8375046945   -1.3193439089
 H   -0.2914877611    1.5765173809    0.3053917668
 H    1.4507293916    1.9169289704    0.1177002887
 H   -1.0490896607   -0.6410017049   -0.3595409708
 H   -0.3606189453   -0.4251264980   -1.9860288832
 H    0.6313853333   -2.4552085756    0.0749006153
 H   -0.6886221734   -4.8932376293   -2.1143717064
 H   -1.3012688916   -3.6369272141   -3.2007547460
 H    1.3470188963   -3.9691088343   -3.6251370008
 H    3.3261337231   -2.3892503435   -2.7851480400
 H    2.6863042978   -0.9096444664   -2.0246489331
 H    3.2383480915   -2.2317738675   -1.0194059506