22

 C   -2.5077764670    1.5003569890    0.2963952842
 C   -1.4836526952    0.5278690233    0.9082203701
 C   -1.0460470979   -0.5726802943   -0.0403030122
 N   -0.0630510412   -0.2580945182   -0.7965142314
 O    0.3206284542   -1.2884980572   -1.6738999661
 C   -1.7210358332   -1.9314548795   -0.0201510941
 C   -1.2765439028   -2.7402492251    1.2140366339
 C   -3.2569022031   -1.8341790410   -0.0960738551
 O   -3.8728056522   -3.1114930481   -0.1511548374
 H   -2.7550633984    2.2922025487    1.0104363699
 H   -2.0949521796    1.9663361287   -0.6027229304
 H   -3.4403168261    1.0005916180    0.0190682281
 H   -0.5947855851    1.0940280533    1.2002851945
 H   -1.8941944944    0.0819500083    1.8207283350
 H    1.0532481715   -0.8803053845   -2.1463843893
 H   -1.3889138338   -2.4679444789   -0.9139433099
 H   -1.5044173786   -2.2095450515    2.1448973146
 H   -1.8081206854   -3.6945452316    1.2359275946
 H   -0.2008407029   -2.9328408252    1.1872499327
 H   -3.6612560504   -1.3567271342    0.8027551855
 H   -3.5498574819   -1.2174776775   -0.9589120611
 H   -3.5980314665   -3.5338966623   -0.9717338061