20

 C    0.0076966683    1.4855552210   -0.0837147036
 C   -0.0474202434   -0.0477588732    0.0325371657
 C    0.7037611997   -0.5374337392    1.2829572991
 C   -1.4691343801   -0.5280713649    0.0456627104
 N   -1.9649636942   -1.3297896004   -0.8884944209
 N   -3.2505119431   -1.5016776531   -0.4881875794
 C   -4.1602026538   -2.3284979663   -1.2487762220
 C   -3.4622917911   -0.8077296499    0.6468327102
 N   -2.3647693483   -0.1790029701    1.0184929366
 H    1.0460622779    1.8321801653   -0.1005941998
 H   -0.4823013522    1.8313471303   -0.9990343356
 H   -0.4976518665    1.9518503970    0.7672706681
 H    0.4199344741   -0.4869329335   -0.8555705245
 H    1.7424532311   -0.1917572331    1.2667246198
 H    0.2269326652   -0.1540413027    2.1899464913
 H    0.7087612408   -1.6302539420    1.3395182401
 H   -3.7828793073   -3.3527644930   -1.3056078157
 H   -5.1329235120   -2.3288056371   -0.7533818618
 H   -4.2707779764   -1.9355584294   -2.2627293994
 H   -4.4161507289   -0.7933334157    1.1539434412