19

 C   -0.1378453447    1.4669235363    0.0518550922
 N    0.0428982112    0.0141282233    0.0402475757
 C    0.7178994125   -0.4879349647   -1.1403913613
 C    2.2371765191   -0.5704543682   -0.9529740578
 O    2.7679468362   -0.3665499703    0.1095991791
 C    0.1471281630   -1.8935421009   -1.5334833959
 C   -1.3637252228   -1.8279989138   -1.8206191091
 C    0.8630875600   -2.4563231334   -2.6832281630
 N    1.4186647309   -2.8832100472   -3.6029584809
 H    0.7957757262    2.0385885292   -0.0702022275
 H   -0.8250343505    1.7584811257   -0.7493034101
 H   -0.5931464483    1.7596827048    1.0017104204
 H    0.6132667370   -0.2426401425    0.8423470443
 H    0.5308996422    0.1814535305   -1.9913892729
 H    2.8256644641   -0.8512431321   -1.8495803998
 H    0.3161818766   -2.5618728979   -0.6795710535
 H   -1.5630061546   -1.2154244563   -2.7047962340
 H   -1.7657044599   -2.8279871780   -1.9996606241
 H   -1.8615146582   -1.3822483244   -0.9586464218