19

 C   -0.0462081629    1.5247145739    0.0119284263
 C    0.0756939725    0.0292173838    0.0236725442
 O   -0.7702877050   -0.6937958990    0.9251229255
 C    0.6520992533   -0.8168827065    1.0835129600
 C    1.2944480757   -2.0107488986    0.3430088048
 C    0.1675747606   -2.8365972528   -0.3032496348
 O   -0.3488684055   -1.9692016307   -1.3335298657
 C    0.4197481151   -0.7724624243   -1.2750524976
 C    1.8302389704   -1.2810846390   -0.9217367672
 H    0.8159845201    1.9830597803   -0.4848965335
 H   -0.9475401874    1.8361784907   -0.5274957213
 H   -0.1073942269    1.9141891774    1.0316154497
 H    1.0557135301   -0.4455024003    2.0217058965
 H    2.0091188775   -2.5910413126    0.9262353232
 H    0.5549777408   -3.7557710632   -0.7609233171
 H   -0.6334988186   -3.0859796321    0.3964649247
 H    0.2855409497   -0.2215351918   -2.2064281421
 H    2.5360034830   -0.4812928595   -0.6814601719
 H    2.2581489175   -1.9404956856   -1.6824073737