18

 O    1.9377139757    4.1522809247    0.1642937175
 C    1.0627352470    3.3225515504    0.0692912724
 N    1.2283593722    1.9695769680   -0.0767944977
 C    2.4217311609    1.2432795611   -0.1546520465
 C    2.4947673355   -0.0908382797   -0.2830951267
 C    3.9278965975   -0.5724327463   -0.3015723021
 C    4.7416367047    0.7229760080   -0.2903235539
 C    4.5567763097    1.6898911768   -1.4288342508
 C    3.7700957911    1.8839298008   -0.1471864755
 H   -0.0151542501    3.5786144055    0.0941310174
 H    0.3777118338    1.4267063463   -0.1078316574
 H    1.6443178294   -0.7558192743   -0.3853044505
 H    4.1553679284   -1.1906832109    0.5781455349
 H    4.1492466416   -1.1946030814   -1.1789740592
 H    5.6874413414    0.7370735588    0.2377039868
 H    5.3638601518    2.3888876307   -1.6204368596
 H    4.0163866533    1.3654042475   -2.3124449941
 H    3.9528725160    2.7551392539    0.4634196752