23

 C    0.3237207400    1.4232511646    0.2205186213
 C    0.4231724599   -0.0987747986    0.0930727005
 C    0.5533230080   -0.5536830343   -1.3536502617
 O    0.6389415515   -1.9636892238   -1.3789699201
 C    0.7630076925   -2.4746069654   -2.6928228852
 C    0.8468754033   -3.9284030289   -2.6652720909
 C    0.9095399633   -5.1306318191   -2.6661200556
 C    1.0127631186   -6.5857210586   -2.6567468425
 C    2.4655689029   -7.0926993685   -2.6100359778
 H    1.2114215444    1.9178718315   -0.1892137733
 H   -0.5490686039    1.8133478854   -0.3148348099
 H    0.2311102495    1.7241204099    1.2679595566
 H    1.2875471245   -0.4726642541    0.6534582101
 H   -0.4616577189   -0.5765205717    0.5287216175
 H   -0.3153950106   -0.2108493576   -1.9439018888
 H    1.4501995460   -0.1058894079   -1.8181138994
 H   -0.0991661668   -2.1605790326   -3.3076748110
 H    1.6608798742   -2.0565044116   -3.1817118209
 H    0.4583352468   -6.9789789824   -1.7949555075
 H    0.5102083113   -6.9901551183   -3.5449343341
 H    3.0275886622   -6.7423051396   -3.4800421958
 H    2.9738326061   -6.7301930393   -1.7125487911
 H    2.4883655553   -8.1865957792   -2.6023289404