19

 C    0.2149436978   -1.1956202709   -0.2809023041
 C    0.1081170029   -0.0027588889   -0.1713846433
 C   -0.0095962490    1.4265992707   -0.0458954172
 C   -1.1278255375    2.0792815105   -0.8558742614
 C   -2.5139460228    1.6340422576   -0.4476241374
 C   -3.6507764392    1.7032147400   -1.3739544886
 O   -3.0319832731    0.4547798416   -1.0645399537
 C    0.3407158404    2.0416809729    1.3045057658
 C    1.2793534085    2.2131356292    0.1460707236
 H    0.2916712614   -2.2496694262   -0.3804249008
 H   -1.0569141136    3.1671785579   -0.7277371151
 H   -0.9910631329    1.8656166954   -1.9216730477
 H   -2.7263595219    1.7001312779    0.6211243684
 H   -4.6600313524    1.8383539774   -0.9871631951
 H   -3.4927311333    2.0645277188   -2.3899273397
 H   -0.2453694528    2.8974732780    1.6230362353
 H    0.6259831056    1.3665810719    2.1019281181
 H    2.2059813648    1.6523792847    0.1501133486
 H    1.3390090972    3.1853436316   -0.3317163254