17

 C    0.0394215843    1.4073325619    0.7382139398
 C    0.0131132609    0.2617786775   -0.2594022146
 O    0.9847792343   -0.0127246087   -0.9338489922
 C   -1.2936245321   -0.4707005708   -0.3302736712
 C   -1.9380762332   -0.9565372441   -1.5874880326
 C   -0.9490294203   -1.4693277001   -2.6320749782
 C   -0.4497151352   -2.4345768261   -1.5296994776
 N   -1.4853787173   -1.9358312073   -0.5428349732
 H    0.9950110851    1.9284465732    0.6751520422
 H   -0.7814407628    2.1073285073    0.5446369497
 H   -0.1047090221    1.0228610610    1.7548502607
 H   -2.0094053095   -0.1309942644    0.4143747420
 H   -2.9906576364   -0.7483767837   -1.7597120428
 H   -1.4485586329   -1.9792966082   -3.4579048915
 H   -0.2316180380   -0.7482175992   -3.0245307613
 H   -0.6665339296   -3.4848710967   -1.7337794433
 H    0.5814802348   -2.3220044615   -1.2001072060