17

 C    0.1788631255    1.3801454133    0.0591281436
 C    0.1295571570   -0.0710617119    0.0366655791
 C    0.0866112652   -1.2748644136    0.0166658446
 C   -0.0460926538   -2.7097604579   -0.0039646295
 O   -1.0934497086   -3.3076735032    0.0026074900
 O    1.1652222594   -3.3071721582   -0.0352905120
 C    1.1535524571   -4.7507122686   -0.0334331340
 C    2.6091157211   -5.1805872087   -0.0600888641
 O    3.3182808652   -4.7323772542    1.0769271648
 H    1.2013977920    1.7431427203    0.2043158177
 H   -0.1970360819    1.7932469828   -0.8831290629
 H   -0.4433074911    1.7780612801    0.8677807540
 H    0.6505143223   -5.1023088378    0.8721321129
 H    0.6013184972   -5.1160539824   -0.9051011445
 H    2.6563821745   -6.2744294191   -0.0550756472
 H    3.0746867085   -4.8291105921   -0.9942877072
 H    3.2095882504   -3.7753863790    1.1092508646