21

 C   -0.1537421537    1.5717715833    0.0211118760
 C    0.0398683512    0.0568374066   -0.0080908580
 C    0.8513348131   -0.4820253404   -1.2207249847
 C    1.6034258351   -1.6865079151   -0.6516464413
 O    1.8398845265   -2.7914630080   -1.4710554883
 C    2.6013016121   -1.4628998091    0.4806172009
 C    2.3114322143   -0.1544705884    1.2103441499
 C    0.7897130815   -0.5384827969    1.2018717739
 C    1.1889626052   -1.9714952567    0.7594096814
 H    0.8064657975    2.0982016997    0.0494726208
 H   -0.6934613984    1.9186809627   -0.8664366636
 H   -0.7291470369    1.8809756534    0.9006903957
 H   -0.9495870435   -0.4192866095   -0.0319054437
 H    0.2029684330   -0.8052077650   -2.0403817804
 H    1.5298433168    0.2816100369   -1.6221576410
 H    2.5816786020   -2.5810254518   -2.0483819108
 H    3.5267903897   -2.0284167264    0.4926689705
 H    2.7175845913   -0.1645770874    2.2253362721
 H    2.6034452009    0.7852676978    0.7274951137
 H    0.2679109488   -0.4165713889    2.1517492984
 H    0.8425408537   -2.9291948268    1.1233474784