20

 C   -0.1268697471    1.4628681834    0.1086193840
 C   -0.0618773180   -0.0308305275   -0.0239893706
 C   -0.9088673123   -0.8449281311   -1.0071233643
 C   -1.1485358097   -1.8382618009    0.1545394502
 N   -0.3736804008   -0.9870290195    1.1306866774
 C    1.0023675585   -0.8563384021    0.5924209288
 C    1.7697204897   -1.9848074226   -0.0798027162
 C    2.0455375752   -3.1093322426    0.8991759347
 O    1.6673956262   -4.2433341066    0.7556722537
 H    0.3815961282    1.9498200434   -0.7323251943
 H   -1.1651317945    1.8118646994    0.1197236624
 H    0.3524395140    1.7957349283    1.0336758098
 H   -1.8178120241   -0.3165245427   -1.3022907844
 H   -0.4130158643   -1.2069944562   -1.9131766946
 H   -2.1896426084   -1.8910456456    0.4770474914
 H   -0.7649435891   -2.8562484768    0.0443523594
 H    1.6121004279   -0.3111265645    1.3117485596
 H    1.2590753346   -2.4025342692   -0.9486680408
 H    2.7345419843   -1.5806395786   -0.4164043293
 H    2.6278566397   -2.8088450380    1.8004315831