19

 C    0.0530417153    1.3524760377    0.0256620398
 O   -0.0439102268   -0.0700220934    0.0393264048
 C   -1.2973099024   -0.5751239865    0.0516725569
 N   -2.3293158671    0.1712572341    0.0403429401
 C   -3.6290799153   -0.4870342485    0.0228668996
 C   -3.6221489951   -1.9396189501    0.5249129194
 O   -4.8142985876   -2.6326253734    0.1922400860
 C   -2.4705429167   -2.6956763039   -0.1349304534
 N   -1.2507954361   -1.9483965547    0.1134278362
 H    1.1217615906    1.5727146997    0.0183868732
 H   -0.4305851075    1.7690082339   -0.8619754519
 H   -0.4212672334    1.7843208437    0.9110076810
 H   -4.3270629174    0.1053060295    0.6306074276
 H   -4.0377285216   -0.4868952530   -0.9986648820
 H   -3.4538744484   -1.9453786122    1.6132239993
 H   -5.5540865053   -2.1540666925    0.5792264606
 H   -2.3795839400   -3.6968645053    0.2957623377
 H   -2.6919312794   -2.8091098685   -1.2069440377
 H   -0.3666874758   -2.3666695865   -0.1271289571