18

 C   -0.0961054808    1.6929419876    0.4164780972
 C    0.0309418460    0.2028959563    0.0947705901
 C    0.7566544974   -0.2260497694   -1.2188628100
 C    1.7268909016   -1.1349609274   -0.3973532708
 C    1.1036458740   -0.5718248919    0.8601123452
 N    1.3235359945   -0.5946236534    2.1070086726
 O    2.4317696198   -1.4015381411    2.4130675476
 C   -1.3119082479   -0.4902904206    0.2946894273
 O   -1.8571658090   -1.1962144791   -0.5122958912
 H    0.8842420765    2.1757307250    0.3811973303
 H   -0.7539464140    2.1916963420   -0.3032275697
 H   -0.5051479203    1.8426543663    1.4207233180
 H    0.1087479366   -0.7446492618   -1.9253608521
 H    1.2569198606    0.6063651674   -1.7167345762
 H    1.5580234016   -2.2086846878   -0.5236725462
 H    2.7974004022   -0.9429835054   -0.5044009931
 H    2.4891839714   -1.3151458090    3.3709399626
 H   -1.7598492502   -0.2999692377    1.2956951682