18

 C   -0.1297987219    1.3102204571   -0.2070625071
 N    0.0915348053   -0.1194779886   -0.0738440944
 C    0.4916144760   -0.6062189295    1.0221674598
 O    0.7631106839    0.1378429631    2.1153822098
 C    0.9711516425   -0.5034280274    3.3901564733
 C    0.2873308056   -1.8333152387    3.5148514082
 C    0.1290824858   -2.5936925689    2.4376185990
 C    0.6764014343   -2.1161027411    1.1159326606
 O    0.0748182234   -2.7565912631    0.0267386820
 H    0.7791404965    1.8004473386   -0.5779584998
 H   -0.9177425318    1.4819475462   -0.9455183455
 H   -0.4096624077    1.7924108135    0.7365939515
 H    2.0558680919   -0.5978433327    3.5470224452
 H    0.5976376463    0.2098064616    4.1304143687
 H   -0.0546208301   -2.1312540487    4.5004079319
 H   -0.3660166998   -3.5583043264    2.4487308666
 H    1.7685173432   -2.3063148217    1.1092116686
 H   -0.1491596034   -2.0300588334   -0.5828079583