15

 O    0.1786878322    1.3167126857   -0.1825738605
 C    0.0678846700   -0.0506496744   -0.0634154095
 C    0.0524986386   -0.6437879488    1.4231680568
 N   -1.3604066569   -0.1349716461    1.4469661666
 C   -1.4020064325   -0.6483407532    0.0441299815
 C   -1.0541868474   -2.1398072741    0.1788500112
 C   -0.0756875445   -2.1224835033    1.1078133134
 C   -1.5842859238   -3.2031735055   -0.5798253300
 N   -2.0508304503   -4.0547629508   -1.2134876256
 H   -0.4405084067    1.6928987523    0.4603768230
 H    0.7437343565   -0.5225802294   -0.7766183220
 H    0.7383145972   -0.3073392499    2.1987572502
 H   -1.9671126516   -0.6496798182    2.0867824332
 H   -2.2227985111   -0.3463378633   -0.6039734091
 H    0.5352529003   -2.9353676910    1.4720377006