23

 C   -0.0020128095    1.5100740549    0.0421659018
 C    0.0119115820   -0.0089715178    0.0157635407
 O    0.6915063680   -0.4743988119    1.1624353224
 C    0.7636049357   -1.8796210453    1.2388918164
 C    1.5132178605   -2.2596711395    2.5084525490
 C    1.6398832942   -3.7724023201    2.6748231229
 C    2.3863808442   -4.1904541845    3.9371742187
 C    2.5437035545   -5.6859602874    4.1565804582
 O    2.8280247147   -3.3806648311    4.7189423413
 H    1.0187579023    1.9027581888    0.0455070835
 H   -0.5232401566    1.9029165230   -0.8359774305
 H   -0.5103683694    1.8731817905    0.9398924695
 H   -1.0183097995   -0.4051137067   -0.0036260115
 H    0.5111100583   -0.3755489987   -0.8980634114
 H   -0.2514255024   -2.3168550979    1.2439316469
 H    1.2782213562   -2.2870283904    0.3496910374
 H    2.5074826700   -1.8031337842    2.4911932235
 H    0.9976260182   -1.8324757406    3.3738786161
 H    0.6512810394   -4.2540716346    2.6945121179
 H    2.1551605044   -4.2248814546    1.8148864401
 H    3.0814363526   -6.1412912299    3.3172842696
 H    3.0884948011   -5.8691016768    5.0833715412
 H    1.5622706010   -6.1711340550    4.2042692765