20

 C   -0.1699297219    1.5727193440   -0.1100341413
 C   -0.0364242831    0.0730236816    0.0030923157
 C    0.9793555148   -0.6700778495   -0.8876906856
 O    1.5477197308   -1.3880254016    0.2259637552
 C    0.6800217447   -0.7300675730    1.1772453513
 C    1.4090678574   -0.1645139400    2.3635902111
 C   -0.6095676071   -1.5302531263    1.3613147235
 N   -1.6605104512   -0.5304001845    1.6735564921
 C   -1.2772822896   -0.7804530718    0.2617824059
 H    0.8038182448    2.0681300943   -0.0302120377
 H   -0.6038688769    1.8549451456   -1.0775214101
 H   -0.8198660052    1.9591617449    0.6796198473
 H    0.5660842671   -1.3405716985   -1.6520823053
 H    1.7231273517   -0.0129657449   -1.3574823855
 H    2.1574425695    0.5710069246    2.0531691864
 H    0.7007630516    0.3122435158    3.0462054762
 H    1.9295629577   -0.9662755950    2.8999154433
 H   -0.7034121668   -2.5695652836    1.6527706439
 H   -2.5222029962   -1.0454226441    1.8507095650
 H   -2.0093883117   -1.1223411980   -0.4615155613