25

 C    1.2284419773    0.1330956940    1.2598497121
 C    0.2741551716    0.3574625893    0.0807165895
 C    0.7937852749   -0.2346439237   -1.2350696757
 C    0.8321615375   -1.7823706814   -1.3006044945
 C    1.1411783212   -2.0311399645   -2.8042385042
 C   -0.2806767986   -1.4303488285   -2.9864503323
 C   -0.6371763029   -2.1530597262   -1.6558752551
 C   -0.0665177748    0.0350809701   -2.5392211346
 C   -1.3556810898    0.8437049638   -2.3843334788
 H    1.3701270780   -0.9319972879    1.4691346375
 H    2.2158814123    0.5625681157    1.0552887797
 H    0.8454856333    0.6004433275    2.1726045452
 H   -0.7097402598   -0.0597157390    0.3265767120
 H    0.1193437819    1.4357446531   -0.0474567340
 H    1.8082974927    0.1559517795   -1.3878987772
 H    1.3804077459   -2.3015794369   -0.5137224146
 H    1.9866378255   -1.4979946445   -3.2515462339
 H    1.1890122642   -3.0934123138   -3.0563427200
 H   -0.8602984381   -1.5838848297   -3.8986295927
 H   -0.7718447113   -3.2291098654   -1.7908345595
 H   -1.4479938919   -1.7578125533   -1.0385684270
 H    0.5576933244    0.5491231755   -3.2800324063
 H   -2.0610872616    0.3819556534   -1.6870072330
 H   -1.1565781838    1.8595099371   -2.0282647855
 H   -1.8618939581    0.9314104458   -3.3520507869