16

 C   -0.0198502125    1.4868855901    0.0529928293
 C    0.0202366855   -0.0342465453   -0.0069368984
 O    1.0800500227   -0.6322972891   -0.0526377635
 C   -1.2610124161   -0.7518976202   -0.0083453989
 C   -2.5333416186   -0.2161950997    0.0392351053
 N   -3.4236849333   -1.2590437974    0.0167096967
 C   -2.7358902223   -2.4462504536   -0.0442901960
 O   -3.4749786077   -3.5812805294   -0.0735630692
 C   -1.3950765161   -2.1820428323   -0.0617913501
 H    1.0007835279    1.8707182211    0.0496680176
 H   -0.5649057562    1.8946559796   -0.8051831156
 H   -0.5338515820    1.8265034695    0.9586457505
 H   -2.8761496376    0.8039520449    0.0864559762
 H   -4.4271077008   -1.1914083244    0.0401735756
 H   -2.8761504710   -4.3330966629   -0.1151482378
 H   -0.5807097520   -2.8864591909   -0.1064348014