21

 C   -0.6311308572    0.8664638374    0.6011264483
 C    0.2508176720   -0.3351824174    0.2358843543
 C    0.5532407145   -0.4550404788   -1.2484118632
 C    1.3885099370    0.6533524660   -1.8531586100
 O    2.6316301232    0.6986438853   -1.1821065842
 C    3.4696378349    1.7256384264   -1.6527068676
 C    0.6427438779   -1.8075870816   -1.8525307865
 N   -0.5022446456   -0.9282609510   -2.1649732386
 H   -0.1350721915    1.8147326482    0.3734178981
 H   -1.5808407006    0.8486612898    0.0554200945
 H   -0.8603980286    0.8653814154    1.6710085428
 H    1.2009228244   -0.2705074711    0.7770378952
 H   -0.2383890959   -1.2598434654    0.5674931314
 H    1.5236104317    0.4619797691   -2.9288477582
 H    0.8685734015    1.6221389088   -1.7615550192
 H    4.3949912417    1.6870669210   -1.0725638487
 H    3.7134523694    1.5981185937   -2.7195012255
 H    3.0108106877    2.7194451997   -1.5254038903
 H    1.3180478782   -1.9903847884   -2.6840221340
 H    0.4788615782   -2.6661942206   -1.2065368259
 H   -1.3144445131   -1.2214189166   -1.6262194727