21

 C    0.0930630798    1.6389513834    0.1738358594
 C    1.5605405790    1.5126961555   -0.3262703846
 C    1.2924850235    0.0363819316   -0.6842036907
 O    2.2989738103   -0.8313597369   -0.2260642574
 C    2.0160680335   -2.2025597209   -0.4217700253
 C    0.9841835551   -2.7841204009    0.5101472336
 C    0.1714563067   -2.1264478541    1.3373609278
 C    0.0625956903   -0.6235625573    1.4813850239
 C   -0.0414660726    0.0875558420    0.1292079162
 H   -0.0501406556    2.1071306415    1.1511633199
 H   -0.5603832236    2.1404200074   -0.5441986470
 H    1.8773955410    2.1712673344   -1.1375050858
 H    2.2908372606    1.5778858602    0.4837086768
 H    1.1150542179   -0.1234476999   -1.7592230296
 H    1.7209433585   -2.3885888097   -1.4715316384
 H    2.9675975406   -2.7297086602   -0.2743143744
 H    0.9392411308   -3.8724471725    0.4870841755
 H   -0.4938418899   -2.7173106991    1.9629692399
 H   -0.8201473117   -0.3776690944    2.0824563384
 H    0.9271665469   -0.2346152346    2.0342784139
 H   -0.9170564612   -0.2881214955   -0.4082600720