16

 C    0.0094350014    1.5018568092   -0.0020385927
 C    0.0066417009    0.0468772606    0.0429891155
 C    0.0058034659   -1.1563199634    0.0752196725
 C   -0.0145543079   -2.6114256463    0.1243082227
 C   -1.4329430182   -3.2022427777   -0.1066920981
 O   -1.9813817351   -2.8126059503   -1.3551552640
 C   -1.4049965779   -4.6607307117    0.0468880364
 C   -1.3454611331   -5.8582868422    0.1348035384
 H    0.8300018507    1.8795329407   -0.6221850894
 H   -0.9263062031    1.8859416456   -0.4230319421
 H    0.1247508484    1.9336891198    0.9983127730
 H    0.6591673446   -3.0350954515   -0.6324845449
 H    0.3523164455   -2.9706985442    1.0937827451
 H   -2.1057366372   -2.7699733868    0.6421579865
 H   -1.4939326597   -3.2751214500   -2.0462944134
 H   -1.3153977552   -6.9163512818    0.2238717744