22

 C    0.0862646026    1.6275200904    0.0558936814
 C    0.0299647112    0.0945016160    0.0989975350
 C   -1.3760194833   -0.4966294019   -0.0152684550
 C   -2.3104653509    0.0057113283    1.0812552787
 C   -2.0750454274   -0.4848404511   -1.4132333686
 O   -1.3012348662    0.0937303849   -2.4457992332
 C   -2.1173682679   -2.0088866829   -1.3220553225
 C   -0.7574065477   -2.5540901268   -1.1582196771
 N   -1.4330506496   -2.0222265127    0.0364876049
 H    1.1255901586    1.9692372955    0.0854008318
 H   -0.3643755065    2.0044210367   -0.8661982684
 H   -0.4317740908    2.0833306620    0.9047761938
 H    0.6602798956   -0.2919708599   -0.7053866255
 H    0.4613558831   -0.2728999984    1.0395728527
 H   -2.5103390735    1.0756919488    0.9737110429
 H   -3.2641942900   -0.5286711275    1.0410146984
 H   -1.8718315046   -0.1713473645    2.0683152308
 H   -3.0728558071   -0.0295285915   -1.3692457693
 H   -1.7483467470   -0.0603645252   -3.2846303889
 H   -2.9838328576   -2.6310689645   -1.5243736870
 H   -0.6568498606   -3.6347452791   -1.1263063030
 H    0.0847119096   -2.0324201466   -1.6004516019