16

 N   -0.0659107903    1.3964828920   -0.1543814446
 C    0.0469218543    0.0103094284   -0.0430169668
 N   -1.0388640516   -0.7651918974   -0.0534852275
 N   -0.5590786326   -2.0472689438   -0.0218199146
 C    0.7844556467   -2.0658788387    0.0302526668
 C    1.2251909825   -0.7722857828    0.0153411107
 C    2.7192400110   -0.7713526157    0.0322047858
 O    3.0709762302   -2.1714683400    0.1051620094
 C    1.9246311261   -3.0289502667    0.0611437516
 H    0.5693433756    1.8995385912    0.4507749902
 H   -1.0184432375    1.7008301463    0.0040885749
 H   -1.2156711091   -2.8068877538   -0.0247227862
 H    3.1690463268   -0.3360534916   -0.8721012060
 H    3.1606652620   -0.2603047191    0.8999218961
 H    1.9255297712   -3.6841841686    0.9445347322
 H    1.9711619548   -3.6726398198   -0.8306514021