17

 C    0.0953650571    1.3591176961   -0.5556161537
 C   -0.1074226275    0.1467608626    0.3673635794
 C   -1.4578940716   -0.4852857256    0.2126399908
 N   -2.3168776449   -0.4534473027    1.2042863528
 O   -3.4607676053   -1.1062251509    0.7383327132
 C   -3.2551821034   -1.5147369204   -0.5269877559
 C   -4.3737296286   -2.2383384765   -1.1894620724
 C   -2.0061298206   -1.1530249057   -0.9231278193
 H    1.0925891745    1.7865434222   -0.4154745671
 H   -0.0058519321    1.0807279268   -1.6093921881
 H   -0.6430261918    2.1376811259   -0.3427378669
 H    0.6648481351   -0.6040104369    0.1597152676
 H    0.0088754998    0.4454558928    1.4131175291
 H   -4.6342482276   -3.1471809245   -0.6371306792
 H   -5.2716994827   -1.6134922876   -1.2354484246
 H   -4.0926743021   -2.5181351847   -2.2064152818
 H   -1.5408883084   -1.3359432209   -1.8778144041