19

 O   -0.1507234596    1.4519933490   -0.0606385479
 C   -0.0306277985    0.0475482091    0.0484041881
 C    0.5574042129   -0.5494051310   -1.2195350289
 C    0.2677928738    0.0215680494   -2.5363485287
 O    1.5109699523    0.3068712502   -1.8719417863
 C    0.8283762441   -0.3215922621    1.2596442640
 C    0.2141948596   -0.0778823680    2.6517688553
 C    0.3060202256   -1.6102352052    2.8032549266
 O    0.8576835223   -1.7535974655    1.4738176883
 H    0.6429752333    1.7408613040   -0.5349664753
 H   -1.0391206560   -0.3581379926    0.2022325731
 H    0.8578971435   -1.5928182147   -1.1445803334
 H    0.3552133503   -0.6006287114   -3.4245945090
 H   -0.4154064186    0.8643547445   -2.6092549186
 H    1.8415633345    0.0818901491    1.1224272254
 H    0.8269800235    0.5018323464    3.3424167705
 H   -0.7948502866    0.3373829929    2.6339130383
 H    1.0025610839   -1.9695878555    3.5700642279
 H   -0.6444306505   -2.1462921884    2.9100504008