20

 C   -0.1777662948    1.4102435204   -0.0350248841
 C   -0.4577789379   -0.0207150999   -0.4727883626
 O   -0.1944231710   -0.4324250875   -1.5851180144
 N   -1.0267630461   -0.8146052873    0.4931823858
 C   -1.1668428834   -2.2297556697    0.3300485242
 C   -2.3389846951   -2.9149274692    1.0035662456
 C   -2.2738668622   -2.8049828610   -0.5065181783
 C   -3.2349298071   -1.9194641911   -1.2600313007
 O   -1.8656827944   -3.9541393246   -1.1995534501
 H    0.8502267787    1.4806982059    0.3366085053
 H   -0.2654528852    2.0649161351   -0.9028415357
 H   -0.8516254378    1.7551817368    0.7544231927
 H   -1.0975807300   -0.4477726781    1.4293739297
 H   -0.2380808526   -2.7930831107    0.2781099454
 H   -2.1546997977   -3.8850314842    1.4502246561
 H   -3.0513697048   -2.2872880667    1.5299187939
 H   -3.4681513826   -1.0156534526   -0.6922476563
 H   -2.7936479674   -1.6253471757   -2.2155581430
 H   -4.1765205478   -2.4483061860   -1.4521299765
 H   -2.6382961106   -4.5191450737   -1.3115973070