12

 O    0.0059290881   -0.0216775398    0.4120236139
 C   -0.0138966468    1.1218744430    0.0418190494
 C   -1.2853097123    1.8874828069   -0.2821774887
 O   -1.0941737665    3.3015772926   -0.1680177928
 C   -0.0615387747    3.8657922228   -0.8437644206
 O   -0.0813482538    4.9976389139   -1.2095496912
 O    0.9951682185    3.0458291281   -1.0725274085
 C    1.2293759699    1.9722445122   -0.1550597592
 H   -1.6149224526    1.6281557378   -1.2974337452
 H   -2.0790902495    1.6196391860    0.4165025550
 H    1.5561378016    2.3660209288    0.8169606847
 H    2.0385390782    1.3717583076   -0.5729622966