20

 C    0.0325797269    1.4659269176   -0.1904208734
 C    1.3056745353    0.7226097628    0.0061943053
 C    1.9995749218    0.6433721155    1.3582118330
 C    1.1708428802    1.2700938708    2.4867563736
 C   -0.2105101016    0.5559741404    2.5142366767
 C   -0.2264753157   -0.5067745087    1.3997011217
 C    0.9446351242   -1.4705003992    1.6434004686
 O    2.1860252455   -0.7518589786    1.6533348222
 N    0.0041931307    0.0183910007    0.0331166788
 H   -0.3130589994    2.1468346159    0.5795677140
 H   -0.2527001513    1.7577474486   -1.1972965778
 H    1.9328447805    0.4993379781   -0.8545291524
 H    3.0064857288    1.0651668324    1.3183550598
 H    1.7114555141    1.1201379679    3.4249339198
 H    1.0715721518    2.3499446941    2.3388760987
 H   -0.3775639807    0.0579803668    3.4745904167
 H   -1.0377935293    1.2595789936    2.3858116803
 H   -1.1702476920   -1.0603286070    1.4015560354
 H    0.8277159370   -1.9808147170    2.6084830036
 H    0.9759648830   -2.2277733248    0.8499618654