20

 C    0.0993886429    1.6110448528    0.0272234828
 C    0.1211632454    0.0861407854   -0.0192234509
 C    0.8227198772   -0.5712680979   -1.2235294240
 C    1.1604627093   -2.0005617431   -0.7394211668
 C    1.5226728060   -1.8053675290    0.7247374661
 C    1.8629686762   -2.8871760049    1.6814169248
 N    2.9096479283   -1.9618445854    1.2389528509
 C    0.8179762737   -0.5484593390    1.1926698391
 O    0.8063892710   -0.1280240396    2.3213985604
 H    1.1117123213    2.0176221935   -0.0684593222
 H   -0.5105354572    2.0252028952   -0.7810650683
 H   -0.3067809646    1.9514040177    0.9832847159
 H   -0.9149265370   -0.2882297975    0.0211938840
 H    0.2114311118   -0.5656871117   -2.1293182722
 H    1.7476813792   -0.0257349988   -1.4477089442
 H    0.2757825531   -2.6436402739   -0.8280826310
 H    1.9614395700   -2.4709945186   -1.3178343654
 H    1.5682090534   -2.7670370905    2.7201668566
 H    1.8642422633   -3.9079136452    1.3059980275
 H    3.4700102166   -2.4060057294    0.5131311668