12

 O    0.0429290578    1.3382347260    0.2821369480
 C    0.0583595687   -0.0473426512    0.0287423141
 C   -1.4137501186   -0.5735814351    0.0474838566
 O   -2.0501133163   -0.1447247701    1.2223501064
 C   -2.1057744239   -0.0327043553   -1.1547546913
 N   -2.5878100902    0.4736533819   -2.0743135374
 C   -1.4149368450   -2.0456645552    0.0059931344
 N   -1.3528996714   -3.1970716662   -0.0395600772
 H   -0.1944706734    1.8023967831   -0.5301122561
 H    0.5472374175   -0.3110484214   -0.9150250991
 H    0.5858827420   -0.5229503548    0.8588365165
 H   -1.7048252072    0.7478903983    1.3859592150