18

 C   -0.0263043273    1.5449188821   -0.0022321454
 C    0.0082599568    0.0446563983    0.0033021495
 C    0.6444709193   -0.8640844630   -1.1229187480
 C   -0.6199551486   -1.8005735111   -1.0887887430
 C    0.0630979343   -2.6490737784    0.0266178494
 C    1.3369016849   -1.7515121425   -0.0229341881
 C    0.6693511246   -0.8776544006    1.0806608481
 N   -0.5595301449   -1.7889301237    1.1301373063
 C   -1.2188445045   -0.9249947205    0.0522068601
 H    0.9863007896    1.9649678158   -0.0303450357
 H   -0.5661924729    1.9260956874   -0.8773467621
 H   -0.5246395510    1.9344381326    0.8933056681
 H    1.1257783996   -0.4874039160   -2.0239217608
 H   -1.1492439030   -2.1814129490   -1.9604285527
 H    0.0358965663   -3.7345864034    0.1265261413
 H    2.3702390219   -2.0931760904   -0.0434444555
 H    1.1229430001   -0.5513064423    2.0181746767
 H   -2.2643904152   -0.6362361252    0.1731762019