21

 C   -0.3737385853    1.3596916064    0.0584315399
 C    0.0318963682   -0.1009454053   -0.0243537928
 O    0.9468028668   -0.2227846835   -1.0853512372
 C    1.0796636996   -1.5071182628   -1.6523623011
 C    1.3753820807   -2.6583650243   -0.7315709207
 C    1.1752673103   -2.7870031775    0.5788446237
 C    0.5978829027   -1.8136377131    1.5776492312
 C    1.3247780980   -1.8922114442    2.9211585677
 O    0.6239327895   -0.4457842212    1.2014931469
 H    0.5147612762    1.9678913142    0.2463398245
 H   -0.8292451442    1.6794019265   -0.8814565753
 H   -1.0833949162    1.5083328961    0.8753672753
 H   -0.8451133226   -0.7483109367   -0.2114497135
 H    0.1695284821   -1.7628475408   -2.2289956075
 H    1.8876896076   -1.4167679567   -2.3874449975
 H    1.7565912696   -3.5285678351   -1.2654988944
 H    1.4085853099   -3.7540421654    1.0224678422
 H   -0.4563964159   -2.1121181342    1.7412674336
 H    2.3755754813   -1.6156483603    2.7971516575
 H    0.8655627268   -1.2021469950    3.6330426098
 H    1.2741175251   -2.9048982371    3.3310372479