18

 N   -0.0354668626   -1.1247983887    0.0868697203
 C   -0.0452359614    0.0317291809    0.0730598818
 C   -0.0525107812    1.4820222461    0.0568893947
 C   -0.2178365187    2.1757504312   -1.3206996626
 O    0.9318647207    3.0056215322   -1.0831811292
 C    1.3254031075    2.2272428691    0.0717815288
 C    1.4208318529    3.0263307269    1.3792888055
 C    0.2609313024    2.4956228543    2.2503853535
 C   -0.8350194264    2.1110299275    1.2398067792
 H   -0.0719712410    1.5034500521   -2.1741769192
 H   -1.1360023040    2.7565927232   -1.4592629001
 H    2.2037630789    1.6116921502   -0.1472747279
 H    2.3935135495    2.9190613463    1.8651402446
 H    1.2798208538    4.0839350479    1.1362211277
 H    0.5840070676    1.6034615237    2.7989828154
 H   -0.0854234944    3.2222376790    2.9897096987
 H   -1.3502571144    3.0091042406    0.8838557301
 H   -1.5871624293    1.4353969174    1.6514188388