16

 O   -0.0559077183    1.0145415352   -0.8170319467
 C   -0.0910027083   -0.2542891503   -0.2480577801
 C   -0.3001007534   -0.3999995898    1.2330018115
 C   -1.4311103723   -0.7203601891    0.2728676370
 N   -2.5616739316    0.1692786548    0.2018176805
 C   -2.9421282740    0.6515561771   -1.0680750561
 O   -3.8634791333    1.3820113724   -1.2948821004
 C   -3.2910274261    0.4135955221    1.3759520277
 O   -4.2836923110    1.0781056841    1.4758683431
 H    0.7456831684    1.4621765734   -0.5272604007
 H    0.5111815160   -1.0072793976   -0.7547555082
 H    0.1718723470   -1.2188934731    1.7631739026
 H   -0.3929566417    0.5239621214    1.7929565406
 H   -1.6632806531   -1.7718411382    0.1242676141
 H   -2.2656657016    0.2542167491   -1.8451645395
 H   -2.8184147867   -0.1082957315    2.2307772745