16

 C   -0.0391782681    1.3765668776   -0.5343548733
 C   -0.0982771440   -0.0546880390   -0.1453475469
 C   -1.0640625320   -1.0073531790   -0.0473155448
 C   -2.5481899909   -0.9661636845   -0.3017092155
 C   -2.9908028198   -0.0408438761   -1.3403346089
 C   -3.3852527154    0.7093237652   -2.1925163138
 N   -0.4908434773   -2.1958834513    0.4068192603
 C    0.7588391086   -1.9117783237    0.5535343313
 O    1.0861661933   -0.6405067550    0.2412096250
 H    0.6888251009    1.5362374593   -1.3373268460
 H   -1.0177405940    1.7053050113   -0.8846622540
 H    0.2608161672    2.0054603955    0.3117731324
 H   -2.8563264610   -1.9842342513   -0.5668822353
 H   -3.0777047959   -0.7356006549    0.6338429188
 H   -3.7311925221    1.3651850674   -2.9526176551
 H    1.5590924305   -2.5551463013    0.8842165057