20

 C    0.3867853963    1.4207362214   -0.3155057826
 C   -0.0072711965   -0.0468883639   -0.0526845452
 C   -1.5125133861   -0.1384019139    0.2361768399
 C    0.4262834660   -0.9135609404   -1.2221587796
 C    1.5256237145   -1.6208533540   -0.9771181128
 C    2.0480631309   -1.3938030684    0.4203956099
 C    0.8342040458   -0.7029090568    1.1080211532
 C    1.1986248244    0.2059643396    2.1883055842
 N    1.4853778980    0.9285163745    3.0444226429
 H    1.4646648406    1.5240714568   -0.4708838250
 H   -0.1171093646    1.7890822664   -1.2148587161
 H    0.1000668275    2.0634794888    0.5222983945
 H   -2.0922861914    0.2840370666   -0.5911621339
 H   -1.8296802561   -1.1773077768    0.3729963074
 H   -1.7710007957    0.4212288218    1.1416627372
 H   -0.1068644365   -0.8846687541   -2.1668476550
 H    2.0330976430   -2.2632544531   -1.6876952400
 H    2.3338877194   -2.3134458747    0.9403575309
 H    2.9348546732   -0.7473862652    0.4175400766
 H    0.2120971873   -1.4916856748    1.5459965035