18

 C   -0.0555314814    1.5528403243    0.0872018372
 C   -0.0474838319    0.0567987537   -0.2104997484
 N   -1.3232468533   -0.5423922273    0.1634695189
 C   -1.5176313389   -1.8994836857    0.0155003981
 N   -2.7262739904   -2.3656079468   -0.2373166708
 O   -2.5679724734   -3.7793448679   -0.2413883046
 C   -1.2850089893   -4.0704330103   -0.0179023252
 N   -0.9550459667   -5.4053384246   -0.0623605107
 C   -0.5460878991   -2.9349575023    0.1560731932
 H    0.9086442756    2.0001252208   -0.1697080253
 H   -0.8260957981    2.0667085193   -0.4987891806
 H   -0.2558959793    1.7367090888    1.1466183189
 H    0.1951293384   -0.1132416578   -1.2722799732
 H    0.7420364960   -0.4271387794    0.3751509934
 H   -2.1299461224   -0.0147689536   -0.1455511483
 H   -1.7388216897   -6.0211257172    0.1041318079
 H   -0.1434738171   -5.6564778704    0.4817392645
 H    0.5081931209   -2.8541655435    0.3537075752