19

 C   -0.8078619462    0.6805560456    0.0071419075
 C    0.6703280173    1.0649300410    0.1292380402
 N    1.3984917822    0.7569872721   -1.0931268498
 C    2.1312803724   -0.2654148241   -1.1392142444
 N    2.8643235183   -0.6761935605   -2.2528199007
 C    3.8083474915   -1.6869491628   -1.8817929762
 C    4.7610276212   -1.3854546886   -0.7304060350
 C    3.4172928214   -2.0181471012   -0.4752108159
 O    2.3521871085   -1.1647813117   -0.1140417489
 H   -1.2571907560    1.1572028532   -0.8690916886
 H   -0.9185218531   -0.4028594448   -0.1034293217
 H   -1.3647641515    0.9930423838    0.8969555240
 H    0.7425508311    2.1474735490    0.2921547515
 H    1.1066064406    0.5736094195    1.0094810956
 H    3.1230546108    0.0609346302   -2.8907035332
 H    4.0472739976   -2.4366712282   -2.6267092681
 H    5.6282344260   -2.0284722616   -0.6225154536
 H    4.9070051859   -0.3511240359   -0.4378286160
 H    3.3089835021   -3.0179452450   -0.0761778567