19

 C    0.0061101330    1.4072138246   -0.0755669026
 N   -0.1864518992   -0.0262945498    0.1751867813
 C    0.6668112079   -0.6254445594    1.1923864943
 C    0.3663998295   -2.1340314057    1.3134523660
 O    0.1611433988   -2.6949535578    0.0365392738
 C    1.6759818462   -2.6543770152    1.9006982545
 O    2.7004803628   -1.7992264201    1.3631199236
 C    2.1613997512   -0.6470170611    0.8764152456
 N    2.8243653914    0.2550492228    0.2927720645
 H    1.0115503345    1.5739133232   -0.4586310005
 H   -0.7258336398    1.7285837339   -0.8216576536
 H   -0.1248981047    2.0237048588    0.8288984685
 H   -1.1483149724   -0.1712348679    0.4704820262
 H    0.5583650082   -0.1537101379    2.1874066876
 H   -0.4858277370   -2.3423284177    1.9766163481
 H   -0.0499497564   -1.9447251380   -0.5444238494
 H    1.6904742605   -2.5921951669    2.9957611198
 H    1.8826868833   -3.6787183095    1.5860141932
 H    3.8069387622   -0.0150852263    0.2209386389