18

 O    0.2947910279    0.0632277434   -0.8322153423
 C    0.1802353636    1.1215879809   -0.2792608050
 C    1.3679547215    2.0064327573    0.1510447645
 C    2.7231090098    1.2274921270    0.1380778736
 C    3.5942983481    1.9082773816   -0.9385459162
 C    2.5793927116    2.5392630917   -1.9021900262
 C    1.5161977902    3.1143872438   -0.9593761664
 C    1.0412491560    2.5978269769    1.4453018232
 N    0.7616913938    3.0617751574    2.4670419850
 H   -0.8129653133    1.5762485937   -0.0806215384
 H    3.1903687990    1.2259297100    1.1237287513
 H    2.5046032909    0.1928919172   -0.1363366828
 H    4.2117649886    2.6932245555   -0.4870941359
 H    4.2701757425    1.2022523274   -1.4273744273
 H    3.0114420136    3.3051057658   -2.5514528807
 H    2.1368706692    1.7685651990   -2.5434778188
 H    0.5614562552    3.3430356242   -1.4428069926
 H    1.8719779118    4.0357248873   -0.4893718150