23

 C   -0.0147595414    1.5070547985    0.1630110894
 C    0.0376892693    0.0084188507   -0.0214398514
 C   -0.1754623435   -0.5270038654   -1.2315008721
 C   -0.1105085347   -1.9821331594   -1.6444742732
 C   -0.9215008836   -3.0190061275   -0.8101942533
 C   -1.4800336730   -2.5513845447    0.5433929025
 C   -0.4788019494   -2.0181423250    1.5553263593
 C    1.0085550428   -2.0716654612    1.3453320884
 C    0.2869397120   -0.7391785578    1.2450535700
 H    0.9374171208    1.8880649103    0.5548434583
 H   -0.2275741549    2.0249405017   -0.7755019507
 H   -0.7848315211    1.7908362193    0.8922554553
 H   -0.3661791661    0.1707501189   -2.0441113090
 H   -0.4421279045   -2.0483306885   -2.6854666610
 H    0.9434466387   -2.2892242835   -1.6735798083
 H   -1.7767949702   -3.3567660120   -1.4059798950
 H   -0.3026512685   -3.9094205999   -0.6521067451
 H   -2.2378814569   -1.7773993396    0.3651515407
 H   -2.0123625976   -3.3988366046    0.9919770918
 H   -0.8108133380   -2.1075036201    2.5861455092
 H    1.6453893992   -2.2195265590    2.2109158526
 H    1.3949402369   -2.5205788711    0.4404271395
 H    0.4433698038   -0.0859985502    2.0982908022