16

 O   -0.0114847634   -0.0150319121    0.0857639602
 C   -0.0369013834    1.1862629900    0.0254017050
 C   -1.2914118752    2.0821862242    0.0122978025
 C   -0.7120842321    3.4865131475   -0.0682450965
 C    0.6721571287    3.4367143071   -0.7705806068
 C    1.2026123047    4.2932029205    0.4249463186
 C    1.2166455602    3.0399986314    1.2104294561
 C    1.1472169524    2.1375986400   -0.0450857197
 N   -0.0112968234    3.9151122758    1.2031324741
 H   -1.9029996835    1.8383603170   -0.8643902299
 H   -1.9043555961    1.9118306759    0.9024038184
 H   -1.3927675038    4.2742481942   -0.3917051305
 H    0.8212617245    3.5822097509   -1.8378415787
 H    1.7217235466    5.2363778193    0.5247714527
 H    1.6476545529    2.8105440549    2.1754791645
 H    2.0990194209    1.7009995634   -0.3410871000