17

 C   -0.4529743323    1.2593734219    0.1675530929
 C    0.0497670542   -0.1712338610    0.0292006081
 C    0.9642098597   -0.5490290725   -1.1646022400
 O    2.0421991353   -0.8941162785   -0.2341112695
 C    1.2776063683   -0.5512252408    0.8591168953
 O    1.6027896165   -0.5646794582    2.0007825675
 C    0.5394765665   -1.7142058174   -2.0152384431
 C    1.3453559858   -2.9358292880   -2.1274383323
 O    0.1675095898   -2.8963178242   -1.3134006068
 H    0.3513190411    1.9839948635    0.0060112140
 H   -1.2497861352    1.4656921406   -0.5533417427
 H   -0.8542173408    1.4218028099    1.1717716794
 H   -0.7549449071   -0.8973951738    0.1721848560
 H    1.2696898231    0.2970000328   -1.7886511349
 H   -0.1232206187   -1.4440419708   -2.8396262769
 H    1.2707686877   -3.5460019493   -3.0257411000
 H    2.2805925660   -2.9986626441   -1.5778808770