23

 C    0.0133940284    1.5241392193    0.0050844875
 C    0.0995898900   -0.0037037753   -0.0474821251
 C    0.6572851114   -0.6059889670    1.2466324146
 C    0.7407802561   -2.1311076000    1.2444751264
 C    1.8980124565   -2.6973255021    0.3689736969
 O    2.6899990511   -2.9618418795    1.5432902408
 C    1.5817199177   -2.6915228105    2.4239444794
 O   -0.5773055270   -2.5942270222    1.0661931755
 C   -0.7940764386   -3.9806033448    0.9115331012
 H    0.9987867537    1.9745355977    0.1699877765
 H   -0.3869860770    1.9324993634   -0.9280361458
 H   -0.6400669849    1.8550028750    0.8200381952
 H   -0.8907875417   -0.4291696144   -0.2360089287
 H    0.7307948166   -0.3035409617   -0.8944998800
 H    1.6613796130   -0.2106477520    1.4445962111
 H    0.0256486359   -0.3062861083    2.0931284985
 H    1.6638826860   -3.6165150821   -0.1818154716
 H    2.3881404466   -1.9920534627   -0.3115552448
 H    1.8411701663   -1.9797335557    3.2162334850
 H    1.1861383222   -3.6064077947    2.8832085264
 H   -0.3811478036   -4.3673940980   -0.0296253496
 H   -0.3812341049   -4.5716489038    1.7398725669
 H   -1.8777041236   -4.1205664306    0.8952689835