20

 C    0.0932501584    1.4619016704    0.1168631459
 C    1.3210226270    0.6410171381   -0.0417082572
 N   -0.0404265845    0.0031128837   -0.0054712391
 C   -0.3964124691   -0.4710145743   -1.3881304578
 C    0.5843399265    0.2317503732   -2.3370294672
 C    1.8115926396   -0.2847848977   -3.1719307279
 C    2.5655647611    1.0038197675   -2.6714234484
 C    1.8225775011    0.4143322718   -1.4306123877
 C    2.3348923039   -0.9908876534   -1.9018862340
 H   -0.1594074891    1.8560069920    1.0975123290
 H   -0.2169622234    2.0957961192   -0.7102829982
 H    1.9556479762    0.4316476494    0.8144018539
 H   -0.3196394551   -1.5609202755   -1.3835685823
 H   -1.4396809402   -0.2145090797   -1.5920439672
 H    0.1665428646    1.1597909490   -2.7383213196
 H    1.8077388956   -0.6696182115   -4.1925767181
 H    3.6572865995    0.9533637426   -2.6705717169
 H    2.2041335849    1.9633284599   -3.0509179858
 H    1.7901023905   -1.8665331579   -1.5480706450
 H    3.4145319324   -1.1522916367   -1.8427856564