14

 O   -0.1127233420    1.3330375224    0.0791299913
 C    0.0761216261   -0.0017193236   -0.0335271111
 C    1.2335536954   -0.6912261423    0.1289129593
 N    1.2543099011   -2.0638015530   -0.0230451659
 C    0.1685956415   -2.6823657872   -0.3195379423
 O    0.1570057141   -4.0252464065   -0.4748741561
 C   -1.1466247729   -2.0496453209   -0.5213575857
 N   -2.2652473273   -2.5948888230   -0.8164323887
 N   -1.0714042526   -0.6701487645   -0.3485275774
 H    0.7272369074    1.7485400579    0.3016043161
 H    2.1651903611   -0.2002899014    0.3787484237
 H    1.0637505355   -4.3237382351   -0.3200986000
 H   -2.1389457414   -3.6006780862   -0.9046875101
 H   -1.9297451659   -0.1504165567   -0.4680766732