23

 C    0.0216901341    1.5775601579    0.1387386594
 C    0.0169768229    0.0544051971    0.0090181235
 O    0.7774544653   -0.5540819749    1.0524576529
 C   -1.4075057349   -0.5184681897   -0.0570926658
 C   -1.4593406682   -2.0397949624   -0.1995675559
 C   -2.8734795633   -2.6447317702   -0.1947171286
 C   -2.6347392976   -4.0031645606   -0.8556642718
 O   -1.5907255190   -3.8034993604   -1.8062840375
 C   -0.9074906491   -2.5817066592   -1.5313867370
 H    1.0474352670    1.9505108081    0.2018397624
 H   -0.4699004929    2.0513511932   -0.7170716069
 H   -0.5135158682    1.8906457425    1.0444039160
 H    0.5542064847   -0.2227969554   -0.9065197143
 H    0.3853355757   -0.2868461314    1.8916285050
 H   -1.9447425233   -0.2180330134    0.8548902746
 H   -1.9415711704   -0.0504693804   -0.8954088623
 H   -0.8808899169   -2.4802787659    0.6201685206
 H   -3.3052975514   -2.7273756287    0.8063948020
 H   -3.5491837720   -2.0343533544   -0.8064433461
 H   -2.3255426194   -4.7524663148   -0.1099023349
 H   -3.5135822060   -4.3938449559   -1.3800461300
 H   -1.0944909224   -1.8696338508   -2.3517301011
 H    0.1707292853   -2.7746767802   -1.4942571141