19

 C    0.0240490251    1.3350832850    0.1508483354
 O   -0.0563503801   -0.0432646977   -0.1670190841
 C   -1.3253786356   -0.5879853500   -0.0765350644
 C   -2.4121230690   -0.1575819482   -1.0732775454
 O   -3.4869962561   -1.0130800707   -0.6716668947
 C   -2.9071741278   -1.7506595925    0.3928865176
 C   -1.4391999595   -2.1384477540    0.0626465593
 C   -1.0934412638   -2.0171297988    1.5655945288
 C   -2.0522291477   -0.8309813959    1.3071185598
 H    1.0817623901    1.6050458947    0.1205879179
 H   -0.5189837649    1.9585592326   -0.5725478430
 H   -0.3685545143    1.5411075895    1.1560562152
 H   -2.7114252762    0.8932155170   -0.9786241142
 H   -2.1257067448   -0.3534130912   -2.1140890379
 H   -3.6117212804   -2.4704902159    0.8040120565
 H   -1.0938199920   -2.8759320997   -0.6623167782
 H   -1.4604068000   -2.8119302705    2.2205653594
 H   -0.0593588994   -1.7574619579    1.7939257437
 H   -2.4184975033   -0.0807650354    2.0087256482