17

 C   -0.0358029992    1.6410701020    0.4209185864
 C   -0.0571617593    0.1600721164    0.0074239285
 C    0.8062514084   -0.6580614725    0.8898208161
 N    1.4686358272   -1.3208706674    1.5660175703
 N   -1.4026300971   -0.3772321897   -0.0294194653
 C   -1.8917517731   -1.6406149315   -0.6047699323
 C   -3.2307239947   -1.3849556600    0.1389788551
 C   -2.5360164094   -0.1438598800    0.7384178116
 O   -2.8085968016    0.7023054824    1.5453595088
 H    0.9936001645    2.0062174938    0.4179958071
 H   -0.6238427618    2.2218228963   -0.2931358370
 H   -0.4680455381    1.7720758863    1.4123467763
 H    0.3612666384    0.0713523049   -1.0038921177
 H   -1.9366776430   -1.6366679449   -1.6980467623
 H   -1.3395956526   -2.5210188456   -0.2601889019
 H   -4.0885877567   -1.1582135687   -0.4957191172
 H   -3.5085199117   -2.1342703920    0.8815330034