23

 C   -0.4654743929    1.5217005868    0.2166819380
 C   -0.0992766485    0.0519993476    0.0319832964
 C   -1.2975167265   -0.7263049992   -0.5140734729
 O   -1.6676148881   -0.1315198009   -1.7529747967
 C    1.1736811062   -0.2860831760   -0.7752551573
 O    1.6258530543   -1.2078617487    0.2366841525
 C    0.6539348129   -0.6990193831    1.1967902086
 C    1.3568966618    0.2179740346    2.1996427917
 C   -0.0434143962   -1.8378660982    1.9322986183
 H    0.3950688633    2.1282682934    0.5070996568
 H   -0.8679513940    1.9229538148   -0.7164249362
 H   -1.2370673964    1.6399864768    0.9869039309
 H   -1.0223750727   -1.7791394935   -0.6631930254
 H   -2.1314955066   -0.6925423579    0.2055966363
 H   -2.3783492212   -0.6534696770   -2.1355603215
 H    1.0228501649   -0.7715797989   -1.7447099751
 H    1.8664874238    0.5575365619   -0.9021658842
 H    1.9468470982    0.9878038314    1.6971191070
 H    0.6396297519    0.7114959695    2.8638598607
 H    2.0397537431   -0.3764716039    2.8145441693
 H    0.6900268663   -2.3783183447    2.5396609290
 H   -0.8167817901   -1.4532834670    2.6058542030
 H   -0.4985883735   -2.5563387279    1.2490095806