22

 C   -0.6109962800    1.6683941228   -0.0085382728
 C    0.0445006495    0.2924652149    0.0423907363
 C   -0.9753698633   -0.8290440715   -0.1863130399
 O   -1.5578859400   -0.8143523069   -1.4804750944
 C    1.3107928863    0.0975627020   -0.8563612256
 C    2.0247178348   -0.5019371855    0.3594018954
 C    2.7784574598   -1.7742468370    0.4064678409
 N    3.4490088896   -0.4814061105    0.6683832678
 C    0.9217491109   -0.0136238792    1.3022376274
 H    0.1198927073    2.4613108579    0.1781968973
 H   -1.0535626287    1.8651146297   -0.9928241380
 H   -1.4025377118    1.7615636787    0.7453535042
 H   -0.4776259741   -1.8009605372   -0.1009503446
 H   -1.7465412472   -0.7869486833    0.6007144335
 H   -2.1196088387   -0.0363467084   -1.5449820680
 H    1.1793201520   -0.5341458544   -1.7386371222
 H    1.7489077543    1.0526014532   -1.1672756657
 H    2.6993354770   -2.4270694111    1.2723861199
 H    2.9776623669   -2.2876633324   -0.5314799949
 H    3.9783416387   -0.1945731717   -0.1524161678
 H    1.2132235184    0.8902950207    1.8452513093
 H    0.5179781082   -0.7379048207    2.0170034520