25

 C   -0.0082630957    1.6309396663    0.0701374015
 C    0.0024988845    0.0982329007    0.0020303357
 C   -1.4035741301   -0.5334624706   -0.0582160948
 C   -2.1614020974   -0.0862136843   -1.3186118177
 C   -1.3902802625   -2.1001862614    0.1006622016
 C   -0.6846125218   -2.8088927989   -1.0804244682
 C   -0.7017694610   -2.5202469015    1.4237834612
 C   -2.7809780956   -2.5713356524    0.1688158589
 C   -3.9122737914   -2.9730312429    0.2471487569
 H    1.0068758511    2.0178337567    0.2038417346
 H   -0.4128250862    2.0829513600   -0.8398821335
 H   -0.6114996857    1.9846777592    0.9140793904
 H    0.5860737701   -0.2158829118   -0.8727101514
 H    0.5385272497   -0.2754887176    0.8799526484
 H   -1.9637906396   -0.1634697920    0.8119941184
 H   -1.5825092006   -0.2865556009   -2.2271364119
 H   -3.1204468565   -0.6024547314   -1.4047309075
 H   -2.3645647596    0.9873931761   -1.2918628697
 H    0.3603741909   -2.4934448155   -1.1520023652
 H   -0.7011058211   -3.8921843825   -0.9318385646
 H   -1.1780491542   -2.5955483214   -2.0312013675
 H   -1.1161122769   -1.9704844178    2.2742900991
 H   -0.8573102032   -3.5871036787    1.6052002761
 H    0.3758508472   -2.3411222214    1.3850266330
 H   -4.9116505643   -3.3260034460    0.3118959864