18

 C   -0.0243270513    1.6250300911    0.0264755331
 C   -0.0353055474    0.1237218727    0.2486019457
 O    0.3402452671   -0.5315679697   -0.9768038239
 C    1.0808956379   -1.7120631897   -0.6961571352
 C    1.0960331689   -1.8725142485    0.8430387677
 C    0.9398249487   -0.4169762652    1.3026240800
 O    2.1582294198    0.3021258664    1.2019720133
 C    0.4810249062   -2.8686163677   -1.3796306851
 N    0.0243682455   -3.7900308766   -1.9062211795
 H    0.9845741498    1.9685436470   -0.2053543092
 H   -0.6898417539    1.8813758681   -0.8016148473
 H   -0.3759162799    2.1427770701    0.9243157715
 H   -1.0482279728   -0.2041989755    0.5295685933
 H    2.1023763070   -1.5867777370   -1.0777484239
 H    0.2450578242   -2.4737614562    1.1749033513
 H    2.0125610244   -2.3447855844    1.2036061860
 H    0.5145799036   -0.3435384758    2.3124735940
 H    2.7751042422   -0.0564365789    1.8473170782