18

 N    0.0655354826   -1.1239442348   -0.4697272242
 C    0.0118302330    0.0115262543   -0.2437019226
 C    0.0005273820    1.4147987586    0.0324704150
 C   -1.1694592921    2.0736064760    0.0104667427
 C   -1.3772771029    3.5504507252    0.2154933232
 C   -0.6273375935    4.1918220451    1.3945166610
 C    0.8959320020    4.1627219435    1.2796689775
 O    1.4493492042    2.8672671817    1.4242240279
 C    1.3715137839    2.0428336466    0.2877465781
 H   -2.0609060571    1.4909419691   -0.2060997909
 H   -1.0927074409    4.0709394369   -0.7128956221
 H   -2.4493040095    3.7340255405    0.3360593203
 H   -0.9425515079    5.2394751359    1.4742466049
 H   -0.9142055589    3.6964443208    2.3285589983
 H    1.2165626760    4.6064741947    0.3213791010
 H    1.3359390690    4.7606946870    2.0839209137
 H    2.1016163068    1.2445422346    0.4411098466
 H    1.6782043833    2.6005055643   -0.6141461604