17

 C   -0.0335061278    1.6117996055   -0.0231558550
 C    0.0164692294    0.0827263565    0.0466762926
 C    0.7438152243   -0.5955840055   -1.1720121086
 C    1.5618468767   -1.8310915755   -0.6510803834
 C    1.6409596468   -1.5018388958    0.8047724835
 C    0.8175622367   -0.4866925639    1.1772942763
 O    0.8816234603   -0.2563387659    2.4594801488
 N    1.9164764154   -1.3045493724    2.9443214856
 N    2.2636120772   -1.9433478554    1.9371966796
 H    0.9752739531    2.0328908383   -0.0809849431
 H   -0.5887658647    1.9354279620   -0.9087131836
 H   -0.5258657538    2.0301645709    0.8592179486
 H   -1.0119237719   -0.2965936922    0.1262740227
 H    0.0387999262   -0.8704216852   -1.9597127555
 H    1.4390622928    0.1333563161   -1.6005704309
 H    1.0298338186   -2.7730955522   -0.8301475481
 H    2.5328581807   -1.9114697052   -1.1476087496