17

 O    0.0288378116    1.1441630733   -0.0256961129
 C   -0.0790083966   -0.2223554620    0.3585457152
 C   -1.4730587767   -0.6827591645    0.0277535402
 C   -1.8276926422   -1.1102373770   -1.3742025538
 C   -1.7850218628   -2.1299099628   -0.2658184884
 N   -0.7431396445   -3.1176976785   -0.2887892315
 C   -0.1274275637   -3.5805590466    0.8356298634
 O   -0.2779966346   -3.1328647012    1.9512000243
 H    0.8617335668    1.4805231710    0.3178042406
 H    0.6553490003   -0.8438949711   -0.1751771619
 H    0.0985610709   -0.3552840816    1.4343316137
 H   -2.2455902068   -0.1571059213    0.5805540972
 H   -2.7916589615   -0.8378688757   -1.7877206177
 H   -1.0174965225   -1.1338620357   -2.0962713947
 H   -2.7355395766   -2.4945922447    0.1163811703
 H   -0.6045959940   -3.6381106596   -1.1417419181
 H    0.5578511429   -4.4225040020    0.6069351840