18

 C   -0.1609759806    1.5729312108   -0.3090249309
 C    0.1050725142    0.0748914056   -0.0853838460
 C    0.8635676378   -0.1650753654    1.2329551024
 O    0.0948318579    0.2306116623    2.3466051397
 N   -1.1551241212   -0.6544609262    0.0369498237
 C   -1.7546320457   -1.0743714354   -1.0053924114
 N   -1.3703073367   -0.9760911139   -2.3260029537
 C   -2.9969961702   -1.8065263687   -0.8192242908
 N   -3.9910073866   -2.3840146505   -0.7017846142
 H    0.7841203427    2.1102365031   -0.4347166996
 H   -0.7771811823    1.7512121466   -1.1960741340
 H   -0.6795189964    1.9831513576    0.5599373327
 H    0.7239807955   -0.3207319640   -0.9081441893
 H    1.1430375772   -1.2288040565    1.2914778182
 H    1.7854002709    0.4264850691    1.2481548243
 H   -0.7610862765   -0.2044121171    2.2317745205
 H   -0.6920230660   -0.2738779623   -2.5703103751
 H   -2.0558689041   -1.1830855852   -3.0339437464