22

 C    0.0100092811    1.5281638367   -0.2308423578
 C    0.0165693012    0.0684916131    0.2392710963
 C   -1.3562262795   -0.5674265266    0.1516315671
 C   -1.8601427501   -1.2091017570   -1.1207162326
 C   -1.5831129897   -2.0634843700    0.0933756441
 C   -0.4408663364   -3.0614463005    0.0764930714
 N   -2.7451268710   -2.5192707610    0.8224616414
 C   -3.5856622424   -3.4888180145    0.3666140901
 O   -3.5126224907   -4.0289162450   -0.7160260726
 H    1.0076942117    1.9717444466   -0.1580468226
 H   -0.3194302547    1.6035117978   -1.2721798182
 H   -0.6703704114    2.1360991839    0.3756802066
 H    0.7323672245   -0.5010215767   -0.3634177304
 H    0.3813540449    0.0192543548    1.2739604162
 H   -2.1179098769   -0.0315528135    0.7163005990
 H   -2.8925925659   -1.0623724880   -1.4121729335
 H   -1.1663758990   -1.3013609788   -1.9503919395
 H    0.4044608892   -2.6983906800   -0.5124110243
 H   -0.0833412263   -3.2717543083    1.0909794272
 H   -0.7863958306   -3.9980873112   -0.3696196896
 H   -2.8538774189   -2.2217024406    1.7803573083
 H   -4.3738962991   -3.7270555614    1.1109874534