20

 C    0.1377074539    1.5181643233   -0.2086923976
 C    0.0498605154    0.0186500545   -0.0398669724
 C   -1.1761546345   -0.6470686589   -0.6561836485
 O   -2.3744845369   -0.4790449623    0.0812302791
 C   -2.2860745288   -0.7393875639    1.4854663092
 C   -1.3837031589   -1.8903739912    1.8856475731
 C   -0.0576030880   -1.8334160433    1.7505266650
 C    0.6257787808   -0.6439671779    1.1664195292
 N    1.3304186266   -0.7150185722   -0.1345431289
 H    1.0150912063    1.9196180819    0.3041157617
 H    0.2134753742    1.7851097189   -1.2687449700
 H   -0.7586637075    2.0008857491    0.1959803220
 H   -1.3867127650   -0.2137280870   -1.6398370612
 H   -0.9662177430   -1.7158767385   -0.8048555342
 H   -1.9504116337    0.1725369533    2.0013257092
 H   -3.3145093582   -0.9314529687    1.8023692190
 H   -1.8511459124   -2.7787316933    2.3017523027
 H    0.5688306438   -2.6610970746    2.0792630228
 H    1.1623780938   -0.0210009347    1.8830576108
 H    1.1704983522   -1.6292408246   -0.5564791611