13

 C   -0.0465124867    1.4371995740    0.0217156609
 N   -0.0093417215   -0.0106877603    0.0289108004
 N   -0.0060450475   -0.7335193482   -1.0828145803
 N    0.0314837581   -1.9851232226   -0.7028383287
 C    0.0499817271   -1.9753928980    0.6546827091
 C    0.0929835787   -3.2026487194    1.4976353086
 N    0.0247859906   -0.7366673431    1.1410101882
 H    0.8417725604    1.8336782434    0.5181684688
 H   -0.0694837267    1.7555484546   -1.0196987935
 H   -0.9394337307    1.7880431468    0.5435362833
 H    0.9856701776   -3.7938784080    1.2735994677
 H    0.1030822276   -2.9321595678    2.5544861423
 H   -0.7769727870   -3.8363250513    1.3017135031