16

 N   -0.2480231682    1.5376534357   -0.1190015418
 C   -0.0656318361    0.1410516918   -0.0514947162
 C   -0.8559955660   -0.8959665241    0.3827191891
 C   -0.0985925187   -2.1061899407    0.2651781890
 C    1.1246185485   -1.7483999038   -0.2372959498
 N    1.1512884224   -0.3912694202   -0.4249436239
 O    2.2294272213   -2.4653389152   -0.5978603817
 C    2.6743682118   -3.4063960244    0.2800999523
 N    3.5711591283   -4.2110789414   -0.0844107428
 H   -0.4788621714    1.8524225430   -1.0577293022
 H   -1.0013054447    1.8261588064    0.4931578948
 H   -1.8764084132   -0.8096289272    0.7233965474
 H   -0.4304988783   -3.1092864371    0.4799252494
 H    1.9598069543    0.1411230940   -0.6977722955
 H    2.1725123041   -3.3417675942    1.2521574265
 H    3.8136078959   -4.8303536627    0.6862175054