19

 C    0.0256807475    1.3871406023    0.2837121256
 N   -0.0215534848    0.0615370371   -0.3119398850
 C    1.2024749795   -0.6940695503   -0.1424920167
 C   -1.2009005129   -0.6693664304   -0.0964839705
 C   -1.3023057131   -2.0171849214    0.1730393335
 N   -2.6597523298   -2.3277402679    0.2374675967
 C   -3.3866229057   -1.2012161008    0.0316974707
 O   -4.7404067044   -1.3072209900    0.0655781222
 C   -2.5372451709   -0.1422626095   -0.1799376305
 H    0.9076155038    1.9178959085   -0.0884974139
 H   -0.8557059749    1.9642073148   -0.0034423307
 H    0.0749767968    1.3672329178    1.3872766838
 H    1.3588273905   -1.0452455727    0.8945001359
 H    1.1871836179   -1.5705137019   -0.7977911061
 H    2.0564542931   -0.0714096560   -0.4239740011
 H   -0.5569329551   -2.7771940501    0.3219257251
 H   -3.0555101131   -3.2318936588    0.4208278806
 H   -5.1136509257   -0.4397937473   -0.1156175636
 H   -2.8308224685    0.8730346965   -0.3927645461