15

 O   -0.0995631535    1.3660977934    0.0702070176
 N    0.0544585545   -0.0404639813    0.0064381008
 C   -1.0627831172   -0.6162239927   -0.0629070329
 C   -2.5733823903   -0.4530087894   -0.0104183172
 C   -2.6598403814   -1.5715307733   -1.0861100136
 C   -1.5839997737   -2.0519437883   -0.0533954805
 N   -2.5954535282   -1.5883727850    1.0228289461
 C   -0.8770192110   -3.2925525698    0.0103312664
 C   -0.2757822282   -4.3318843201    0.0576316158
 H    0.8166070484    1.6609421108    0.1078657896
 H   -3.1797246102    0.4406970778    0.0998920768
 H   -3.5828891923   -2.1518151915   -1.0553244107
 H   -2.3101517841   -1.3401966691   -2.0918304077
 H   -2.0774871051   -1.3005930913    1.8595143930
 H    0.2563708622   -5.2501618801    0.1006977566