18

 C   -0.4617751747    1.3916244685   -0.1700577654
 C   -0.1214599726   -0.0508585406    0.0973363541
 O    1.2368924911   -0.4859831575   -0.0979047734
 C    0.6926001645   -0.5695102588    1.2112839635
 C    1.3423655881    0.2226391696    2.3168746185
 C    0.7322399806    0.0911051314    3.7102525868
 C    2.0393176619   -0.5726778832    3.4214863564
 C    1.9537603056    1.4848113997    1.9877311255
 N    2.4619339796    2.5003626606    1.7670658612
 H    0.2799123038    2.0791136896    0.2351784685
 H   -0.5296011547    1.5593612110   -1.2499402738
 H   -1.4393404079    1.6283778381    0.2642363075
 H   -0.8482383532   -0.7590543149   -0.3085796308
 H    0.4705140314   -1.5881254152    1.5424766105
 H    0.7250299143    0.9763125895    4.3339958094
 H   -0.1582745124   -0.5236762107    3.7831473126
 H    2.0621322443   -1.6491083219    3.2928174159
 H    2.9399222403   -0.1444123952    3.8437486231