23

 C    0.2461438003   -1.6832333189    0.9650663196
 C   -0.0089026975   -0.5326517654   -0.0133741566
 C    0.5511568692   -0.7332163106   -1.3919439510
 O    1.8985700318   -1.2275233903   -1.5201007862
 C    0.8571452847   -1.8973711652   -2.2598073956
 C    0.7359293900   -3.3820368272   -2.1257354054
 C    0.6514889061   -1.0598954701   -3.5318754428
 C    0.3262042624    0.1778785788   -2.6234346964
 C   -1.0822812026    0.7348747035   -2.7909408361
 H   -0.2964044958   -2.5864693813    0.6701221826
 H    1.3111568607   -1.9241465312    1.0048777903
 H   -0.0856468758   -1.4114834263    1.9713513167
 H   -1.0853878258   -0.3399038142   -0.0987659261
 H    0.4300234780    0.3916511677    0.3892514893
 H    0.8672435073   -3.6977342253   -1.0890876969
 H   -0.2419737402   -3.7257409795   -2.4789765012
 H    1.5021187630   -3.8802173060   -2.7318368974
 H    1.5283506456   -0.9852494970   -4.1804052528
 H   -0.2138663414   -1.3755273290   -4.1227395835
 H    1.0681607087    0.9807552221   -2.6812445836
 H   -1.8369626017   -0.0562459647   -2.7075291230
 H   -1.3082282570    1.4927644360   -2.0330678725
 H   -1.2010587599    1.2020948343   -3.7742017113