20

 C   -0.4488864344    1.3523661409    0.2510475385
 C   -0.0748896542   -0.0940931723    0.0209698134
 C    0.5581019230   -0.5853418320   -1.2409982259
 C    0.9312450163    0.3518530770   -2.3840028565
 C    2.4362685864    0.6870330108   -2.3600883130
 C    2.8113568512    1.2532399572   -1.0063203847
 O    3.4182821633    2.2885836270   -0.8590102911
 C    2.4022532861    0.3989149171    0.1966960505
 N    1.3138289011   -0.5667219341    0.0276259021
 H    0.2054981070    2.0591976383   -0.2648848150
 H   -1.4738369396    1.5354303789   -0.0892883264
 H   -0.4112606132    1.5919695853    1.3194704781
 H   -0.7430268928   -0.7873956715    0.5321349617
 H    0.3167838071   -1.5979685897   -1.5598067769
 H    0.6749750988   -0.1222690935   -3.3356597642
 H    0.3573235167    1.2833730789   -2.3412310633
 H    3.0123462149   -0.2357489125   -2.5140795121
 H    2.7158706167    1.4017956282   -3.1368758310
 H    3.3052119334   -0.1731155292    0.4591055658
 H    2.2104901823    1.0661761552    1.0422636600