19

 C    0.2239467397    1.4766605859   -0.2970324471
 C   -0.0111578797   -0.0055850815    0.0270346411
 C    0.7408795081   -0.4150021778    1.2986338110
 C   -1.5155198900   -0.3066605793    0.1507972268
 C   -2.3299203491   -0.0658101079   -1.1515980927
 O   -3.0512039584   -1.3054399491   -1.3604301385
 C   -2.6011270781   -2.1407970859   -0.3956643397
 N   -1.7754277879   -1.7281949790    0.4700617768
 H    1.2931545190    1.6851403052   -0.4025250833
 H   -0.2635337226    1.7841633627   -1.2284106166
 H   -0.1595437727    2.1161775328    0.5072251048
 H    0.3688903114   -0.6111254357   -0.8085709320
 H    0.4011140968    0.1750841293    2.1585419790
 H    0.5732414175   -1.4687647556    1.5287526586
 H    1.8163953436   -0.2448243101    1.1842429222
 H   -1.9144842185    0.2994537187    0.9762404535
 H   -3.0595011250    0.7435310462   -1.0812234889
 H   -1.6930961011    0.1020525528   -2.0266799237
 H   -3.0121066329   -3.1433226916   -0.4475922211