17

 N   -0.0026808178    1.2890488451    0.3532988543
 C    0.0326649772    0.0590568207    0.0723492946
 O    1.2260804606   -0.6461692138   -0.0413448132
 C    1.6449657104   -0.9576399026   -1.3635551270
 O    0.9228829341   -1.9887313146   -1.9582164731
 C   -0.3847852689   -1.6315563024   -2.3759608463
 C   -1.3982318057   -1.5069919862   -1.2535455946
 C   -1.1643274136   -2.1302495814    0.0683352710
 N   -1.1740100837   -0.6624505512   -0.0622507277
 H    0.9523326521    1.6458591807    0.4149356728
 H    1.5980557744   -0.0441011801   -1.9789577002
 H    2.6728573885   -1.3091985886   -1.2676388433
 H   -0.3531856249   -0.6950186294   -2.9560885133
 H   -0.7150855694   -2.4276905675   -3.0512048226
 H   -2.4176605430   -1.4246934963   -1.6276406959
 H   -1.9949461363   -2.5263009833    0.6444580110
 H   -0.2062566742   -2.6158525091    0.2164655536