16

 C   -0.0704126371    1.4991118567    0.0790181346
 C    1.3246228980    2.1118008492   -0.0532795696
 C    2.3964774565    1.3360144089   -0.2547945114
 C    1.9999066299   -0.0843990893   -0.3170253357
 O    2.6782258942   -1.3505936884   -0.5066571937
 C    1.2440161376   -1.7185818020   -0.3496630557
 C    0.9695824055   -0.6320002843    0.7128371818
 N   -0.1773221419    0.0125316912   -0.0261736651
 C    0.7307726796   -0.4848571814   -1.1238619404
 H   -0.5048417131    1.7930977408    1.0437731458
 H   -0.7296581744    1.9316180911   -0.6853396199
 H    1.4011546300    3.1927027880    0.0233671271
 H    3.4143977154    1.6916341481   -0.3586523344
 H    0.9845310112   -2.7740061160   -0.4004792502
 H    1.0504516736   -0.6750171995    1.7989686672
 H    0.5320902450   -0.3556261831   -2.1877681905