18

 C   -0.0621443510    1.5951458033    0.0597020787
 C    1.4856913380    1.5720438587   -0.0479384063
 N    1.4613975791    0.1620267307    0.3849422073
 C    0.0019261854    0.0502821169    0.1755340777
 C    2.3782535690   -0.7441847664   -0.1010834533
 N    3.5117908509   -0.4457988608   -0.6970961453
 C    4.1161134792   -1.6646192424   -0.9483024230
 C    3.3400271784   -2.6969015561   -0.5131562162
 N    2.2114428977   -2.0944584111    0.0332365765
 H   -0.4276172882    2.0788107727    0.9668360707
 H   -0.6016669347    1.9902320327   -0.8007914828
 H    1.8661251584    1.6897583934   -1.0690468814
 H    2.0479447187    2.2337065474    0.6164435222
 H   -0.5429359647   -0.4100070785    1.0070479745
 H   -0.2618812018   -0.4713219097   -0.7553938632
 H    5.0760207153   -1.7179911558   -1.4389915150
 H    3.4540219802   -3.7672013684   -0.5406955499
 H    1.4575363800   -2.5585297966    0.5091513387