17

 C   -0.0486231699    1.6060875137   -0.0554808275
 C    1.4122253692    2.0200829535   -0.1923070466
 C    2.2605120250    0.9998941659   -0.0157803207
 C    1.4939713906   -0.2593886095    0.2105425097
 C    1.6970788528   -1.3798589116    1.2181384946
 C    0.2803095429   -1.6066568079    1.7334240466
 C   -0.6104265956   -0.7667448949    1.1924300945
 C    0.0661693889    0.1105568520    0.1938518605
 O    0.6509043598   -0.6229677375   -0.9068161403
 H   -0.5405891322    2.1192373409    0.7802317739
 H   -0.6244087690    1.8382422252   -0.9589922215
 H    1.7008176765    3.0335389295   -0.4505142351
 H    3.3409945068    1.0572619693   -0.0655820957
 H    2.1144378151   -2.2848286005    0.7614119901
 H    2.3801460310   -1.0814300310    2.0232025578
 H    0.0429419785   -2.4025677334    2.4314440394
 H   -1.6715777203   -0.7420165937    1.4082078701