21

 C    0.0008857973    1.6083936455    0.1280769474
 C   -0.0111978139    0.0828168131    0.0166190684
 C    1.1085568064   -0.4618136653   -0.9284444311
 C    1.9903432543   -0.7246501494    0.3214566819
 C    0.7167172685   -0.6110241810    1.2033047330
 N   -1.3721824299   -0.4036923005   -0.1935250586
 C   -2.0225533953   -0.2129831701   -1.3916381676
 N   -3.2253108367   -0.9114664249   -1.4960171210
 O   -1.5873926734    0.4762932421   -2.2970857684
 H    1.0165503351    1.9753778251    0.3073818935
 H   -0.3713048641    2.0512252090   -0.7974658101
 H   -0.6334704904    1.9344444362    0.9589754233
 H    0.7974781386   -1.3900478609   -1.4139263125
 H    1.4835338015    0.2231235690   -1.6904240640
 H    2.5332828597   -1.6709016621    0.3608419836
 H    2.6992376167    0.0844896052    0.5135286827
 H    0.7816644617   -0.0499203650    2.1392824027
 H    0.2908611690   -1.5976734052    1.4176335721
 H   -1.6293692667   -1.2244496126    0.3326785130
 H   -3.7594467386   -1.0354720488   -0.6483242695
 H   -3.7791488196   -0.5894410294   -2.2758612586