17

 C   -0.0187124425    1.6429031296   -0.0492686825
 C   -0.0356250221    0.1099710513   -0.0212324172
 C    0.8202286221   -0.4429466476    1.1449367798
 N   -1.4045765547   -0.4211422766    0.0535909065
 C   -2.2657567679   -0.2246274259    1.0880716940
 O   -2.0179684196    0.3698456105    2.1162309383
 C    0.5810182467   -0.4692688938   -1.2958033287
 O    1.3918101875    0.0910425381   -1.9804342946
 H    1.0030438713    2.0001163191   -0.1926666017
 H   -0.6286830519    2.0195125116   -0.8751168491
 H   -0.4162256002    2.0309882940    0.8896402565
 H    0.3806553070   -0.1282187266    2.0918345186
 H    0.8542563900   -1.5368618042    1.1223747632
 H    1.8405079122   -0.0581473479    1.0691511292
 H   -1.7794020772   -0.8843242266   -0.7611163207
 H   -3.2527971997   -0.6873387091    0.8847179873
 H    0.2445495289   -1.5094468559   -1.5293661589