20

 C   -0.0601449953    1.6069484203   -0.1308496844
 C    0.0137694105    0.0774257432   -0.1381950383
 C   -1.3580747796   -0.6243563330   -0.0193812345
 C   -2.2582314715   -0.3346987405   -1.2076542187
 C   -3.7200260627   -0.2904863068   -1.0875535774
 O   -2.9553203003    0.9121466017   -1.2054362089
 C   -1.1355750187   -2.1380233420    0.0431813104
 N   -1.4741997191   -2.7373624254    1.2212763663
 O   -0.6894554759   -2.7604076042   -0.9026758806
 H    0.9447086559    2.0359777536   -0.1949138905
 H   -0.6483032311    1.9896949321   -0.9681150053
 H   -0.5235760651    1.9778382049    0.7899308528
 H    0.4963234012   -0.2815541307   -1.0539084628
 H    0.6476751588   -0.2617153751    0.6908955275
 H   -1.8688538934   -0.2700308821    0.8848029684
 H   -1.8337452472   -0.6185582053   -2.1699049911
 H   -4.3426029765   -0.5363695550   -1.9460682137
 H   -4.1863492951   -0.4525198491   -0.1160937243
 H   -1.7671165414   -2.2130374158    2.0262415409
 H   -1.2804395236   -3.7203909807    1.3269806843