12

 N   -0.0936471631    1.2614860374    0.1487085304
 C   -0.5358244681    0.0773349484   -0.3242524736
 O   -0.9490933182   -0.1529064925   -1.4300163409
 O   -0.4346111502   -0.8551410123    0.6956337193
 C   -0.8151287514   -2.1339604040    0.4827967677
 N   -0.6979841448   -2.9765283148    1.4728972730
 O   -1.1496762157   -4.1662371639    0.9769552491
 N   -1.5460852345   -4.0531444863   -0.3246729550
 C   -1.3503328486   -2.8078595012   -0.6559315068
 H   -0.0998980844    2.0527842217   -0.4690449653
 H    0.2345135849    1.3555789997    1.0932142565
 H   -1.5760365657   -2.4266457421   -1.6344539344