25

 C   -0.2775806237    1.4312649925   -0.1998181486
 C    0.1567594325   -0.0312827328   -0.1501765655
 C    1.2868317469   -0.5984335318   -1.0727367099
 C    1.9205063203   -1.2670508493    0.1505661784
 C    2.3340412915   -0.2603717037    1.1998523126
 C    3.0630905076   -0.8869622138    2.3837231768
 C    2.9182490751    1.1039871707    0.8623285934
 C    0.8634764861   -0.6346984537    1.0855351695
 C    0.0382401394   -1.1998055446    2.2134182092
 H    0.5468698620    2.1299973209   -0.0449065665
 H   -0.7336201852    1.6637591442   -1.1691285406
 H   -1.0299861987    1.6354949999    0.5708276120
 H   -0.7372364630   -0.6432976415   -0.3222551986
 H    0.9083093037   -1.3065662769   -1.8133720281
 H    1.9127134293    0.1324064703   -1.5952993079
 H    2.3216768993   -2.2754556302    0.1630548204
 H    4.1422455813   -0.8996973080    2.1931073159
 H    2.8990962544   -0.3162225856    3.3055586134
 H    2.7534956752   -1.9186498331    2.5684323877
 H    2.5455386586    1.5199329821   -0.0734217951
 H    2.7056121400    1.8290816740    1.6569656275
 H    4.0089074714    1.0312996148    0.7715838395
 H   -0.4824454179   -0.3954690163    2.7494373356
 H   -0.7302148199   -1.8824647175    1.8310628800
 H    0.6299900238   -1.7468759405    2.9503085288