18

 O   -0.5680016251    1.2161753155   -0.6558920906
 C   -0.2402443212   -0.0662005820   -0.2159715157
 C   -0.2225787550   -0.3884133375    1.2623133660
 C   -1.3277990100   -0.9199820214    0.3882498077
 O   -2.5729358339   -0.2928521346    0.5483815574
 C   -3.4248477161   -0.4880570401   -0.5705454102
 C   -4.7514222915    0.2033222973   -0.2356570022
 C   -5.7367577633    0.0381219923   -1.2992606569
 N   -6.5053216802   -0.1037570848   -2.1499473742
 H   -1.3717596600    1.4716135055   -0.1861375659
 H    0.5011692321   -0.5198705259   -0.8643838864
 H    0.5090325974   -1.0880844635    1.6509180151
 H   -0.4908679832    0.4155897777    1.9403520307
 H   -1.3869990004   -1.9872781904    0.1774447856
 H   -2.9817911521   -0.0630794804   -1.4802209987
 H   -3.5929740337   -1.5606222914   -0.7431468791
 H   -5.1490543506   -0.2110200188    0.6966127370
 H   -4.5792870430    1.2714650526   -0.0654846997