15

 O    0.0052264067    0.1154499981    0.5693715273
 C   -0.0397007031    1.2353509772    0.1369927988
 C   -1.3393270577    1.9499652028   -0.2483462908
 C   -1.0327020342    3.3419127115   -0.7927972262
 C    0.0584635557    3.3288376140   -1.8848874940
 C    0.9974763351    3.4368049844   -0.6645907527
 O   -0.0946076957    3.9727760672    0.1350009350
 C    1.2801790045    2.0516295392   -0.1012562109
 O    2.3630097071    1.5957151896    0.1428575835
 H   -1.8938889373    1.3292978680   -0.9619730410
 H   -1.9542188934    2.0291791714    0.6552436010
 H   -1.9264794179    3.9491114893   -0.9513708236
 H    0.1373200381    2.4526067684   -2.5331861285
 H    0.0685318293    4.2419723740   -2.4811334461
 H    1.8814865527    4.0752812949   -0.6921475817