23

 C   -0.1265350721    1.5889749983   -0.3555207096
 C   -0.0787247272    0.0802310821   -0.0867525076
 C   -1.4609186848   -0.5475176447    0.1392329443
 C   -2.1830944901    0.0241251177    1.3531213285
 O   -2.2805921963   -0.3959158724   -1.0603010535
 C   -2.2832626230   -1.8163121649   -1.3076459017
 C   -1.5461448128   -2.1024442699    0.0120318686
 C   -0.2954024779   -2.9576593816   -0.0417589644
 O   -0.7272922858   -4.2945575224   -0.2650017307
 H    0.8590944996    1.9579871405   -0.6544942018
 H   -0.8312089604    1.8047573150   -1.1636340309
 H   -0.4349123943    2.1564369025    0.5273375001
 H    0.3872486893   -0.4104067483   -0.9477647987
 H    0.5589916370   -0.1319671191    0.7814380292
 H   -2.3481211028    1.0992729958    1.2432641739
 H   -3.1588484584   -0.4542923649    1.4729085740
 H   -1.5999707002   -0.1433283569    2.2659312921
 H   -3.2988586803   -2.2155713847   -1.4021158265
 H   -1.7165504235   -2.0792272302   -2.2116253131
 H   -2.2077415112   -2.5278174811    0.7715989016
 H    0.3720052651   -2.6234171298   -0.8498836040
 H    0.2633177962   -2.8713769945    0.9045116311
 H    0.0513111841   -4.8494611967   -0.3682428508