19

 O    0.1736679097    0.6462636749    0.9004660346
 C   -0.1791235141    0.1612815288   -0.3863603482
 C   -1.5265690476   -0.5236303798   -0.3962359426
 C   -1.8044209386   -1.6116558103   -1.4180421419
 C   -1.6273266142   -1.9786670354    0.0228237410
 O   -0.4494202170   -2.6627476739    0.3557102007
 C   -2.8052611231   -2.4308574201    0.8304786158
 C   -2.9573556749   -3.8281395718    1.2506714246
 O   -2.4741683685   -2.8318925587    2.1701674350
 H    0.2805941365   -0.1242264787    1.4676512418
 H   -0.2016249485    1.0397468161   -1.0399932806
 H    0.5843523539   -0.5248541231   -0.7774352360
 H   -2.3604214660    0.1166494887   -0.1184767036
 H   -2.7917763486   -1.6829489018   -1.8618584353
 H   -0.9904699739   -1.8878008715   -2.0804586832
 H   -0.4990823618   -2.7958843543    1.3140732208
 H   -3.6967823020   -1.8093701955    0.7512256055
 H   -3.9472236788   -4.2186583289    1.4774883872
 H   -2.2174588325   -4.5596413446    0.9354670141