15

 C    0.1776882385    1.6021197889   -0.0551555663
 C    0.0645020843    0.0887551009    0.0449066820
 N    0.9849256908   -0.6964116320   -0.8254338485
 C    1.4008389976   -1.6127365664    0.2771435431
 C    2.8181394447   -1.8728916908    0.4191970631
 C    3.9919593845   -2.0842597149    0.5663164128
 C    0.7102379892   -0.6067437350    1.2533999379
 O    0.7234603384   -0.4316476713    2.4296709373
 H    1.2224865079    1.9122703698    0.0254664743
 H   -0.2131268906    1.9561910571   -1.0139340693
 H   -0.3958736986    2.0760564744    0.7472815951
 H   -0.9904936997   -0.2217488544   -0.0286848813
 H    0.5370118099   -1.1702565320   -1.6012059087
 H    0.8393343169   -2.5607200531    0.3046970373
 H    5.0306947563   -2.2664108512    0.6914931914