16

 O    0.4000158824    1.8705642017    1.5244860158
 C    0.1453417925    1.7947718247    0.3450386294
 N    1.0258780477    1.3833885427   -0.6220788125
 C    2.3180664916    0.9344156413   -0.3149333870
 C    3.4824110327    1.6079041726    0.3995494486
 C    3.6535715833    0.4217045834    1.3460350026
 C    2.9827375868   -0.4121053800    0.2277677930
 O    3.9453633303   -0.3794754116   -0.8654783383
 C    3.6353926573    1.0011835891   -1.0111088009
 H   -0.8392299011    2.0629643113   -0.0865851220
 H    0.6651014985    1.2386192505   -1.5540596644
 H    3.6106965568    2.6648866729    0.5908642668
 H    4.6614139673    0.1131843518    1.6376905825
 H    2.9981161502    0.5270076635    2.2124941608
 H    2.5350825022   -1.3907999331    0.3840887926
 H    3.9752849816    1.5358275093   -1.8882965770