16

 N    0.0441561331   -1.1362463564   -0.0369487263
 C   -0.0028700145    0.0184472375   -0.0234961084
 C   -0.0347673040    1.4680303567    0.0090022735
 C   -0.8822525628    2.2672846789    1.0423260593
 C   -0.7348443879    3.3320153814   -0.0740836298
 C    0.7731390817    3.6716224886   -0.0236655990
 C    1.3303126151    2.2142046551    0.0471348803
 N   -0.8341746889    2.1851272692   -1.0379672655
 H   -1.8960837259    1.8789252518    1.1196800476
 H   -0.4391058290    2.4620075576    2.0195736222
 H   -1.4466792580    4.1471503477   -0.1969137260
 H    1.1007234728    4.2052920801   -0.9199797804
 H    1.0444425776    4.2747316958    0.8470227625
 H    1.8952708484    2.0045369025    0.9584276524
 H    1.9532150831    1.9439320916   -0.8089366483
 H   -0.3079044206    2.3309613719   -1.9012106639