19

 C   -0.1617219015    1.4314530872    0.0742806075
 C    0.0044403571   -0.0545601328   -0.0386319286
 C    1.0147757745   -0.8387458435   -0.8821171580
 C    0.1815834494   -2.0861516376   -0.4999079607
 O    0.4138535065   -2.2252806848    0.9323606945
 C   -0.3645084948   -1.0412279759    1.0863241769
 C   -1.0601723238   -1.1450747760   -0.2387889653
 C   -2.4877604818   -1.1453995958   -0.6667579795
 O   -3.1742424694   -2.3389224223   -0.3144737786
 H    0.7231108135    1.8885652101    0.5321767588
 H   -0.3079099900    1.8981301082   -0.9063925250
 H   -1.0253667717    1.6924957037    0.6958771649
 H    0.9197388170   -0.5934523500   -1.9437869890
 H    2.0677568056   -0.8470532658   -0.5813471628
 H    0.2170068432   -3.0285528346   -1.0415381972
 H   -0.6993882624   -0.7493416586    2.0745578391
 H   -2.9862946558   -0.2529852820   -0.2519901404
 H   -2.5684023089   -1.0747241780   -1.7577824029
 H   -3.0045794168   -2.5012053018    0.6196897265