14

 C   -0.0277278411    1.4953699324    0.0004442702
 C    0.0022552075   -0.0056573267   -0.0150200441
 N   -0.0290303012   -0.6092657447   -1.1618835466
 C   -0.0035700682   -1.9859154279   -1.2247132040
 N   -0.0312712765   -2.6283587585   -2.3133208631
 O    0.0576307637   -2.7205452456   -0.0013115412
 C    0.0885826776   -2.0649066517    1.1622148901
 C    0.0643899023   -0.7240431045    1.2387563393
 H    0.8641772518    1.8895037851    0.5013855923
 H   -0.0739322511    1.8799604530   -1.0182298891
 H   -0.8947534035    1.8536802147    0.5676036154
 H   -0.0040106123   -3.6313248880   -2.1337214697
 H    0.1344074580   -2.7399588658    2.0105766825
 H    0.0903339229   -0.2165975018    2.1927793780