18

 C    0.0279839891    1.3686662986   -0.2980696519
 C    1.4669017250    1.5861274974    0.2033736698
 C    1.3351352019    0.1597519005    0.7685983155
 O   -0.0018336997    0.0289389287    0.2413070524
 C    2.2225728355   -1.0338196765    0.4981861501
 C    3.1984447838   -1.1492138482    1.6251237229
 C    2.9496681533   -0.0200203853    2.6132229519
 C    1.4735153953   -0.2493723425    2.2451785910
 N    1.8168433113   -1.7096730972    1.7866451217
 H   -0.7376122293    2.0082162031    0.1567302883
 H   -0.1070041681    1.3713867499   -1.3858006861
 H    2.2245990238    1.7044284763   -0.5733732929
 H    1.5980574524    2.3693797024    0.9532532115
 H    2.3188065279   -1.5913458969   -0.4265699916
 H    4.0611148350   -1.8033508261    1.5594574039
 H    3.1656686201   -0.3421206408    3.6350589840
 H    3.3869920274    0.9685549518    2.4357646158
 H    0.6528050054   -0.0781568253    2.9388371138