14

 N   -0.1502275992    1.3839053443    0.3293176527
 C   -0.0492959068    0.1500902365    0.0418364283
 N    1.1825057634   -0.4730502262   -0.1931983130
 C    1.4688741479   -1.2737927409   -1.1373904520
 N    0.6591919511   -1.8091099246   -2.1195192832
 C   -0.7146108310   -1.9356614458   -2.0971409412
 C   -1.5798126003   -1.5153487642   -1.1555436906
 C   -1.3312203848   -0.6793791664    0.0268700583
 O   -2.1432234580   -0.5843683578    0.9217711032
 H    0.7812520886    1.8097492089    0.3221398282
 H    2.5034047495   -1.6058565074   -1.2358880030
 H    1.1384738837   -2.3290906191   -2.8382115284
 H   -1.0878811038   -2.5029669980   -2.9434877490
 H   -2.6198002903   -1.7945134094   -1.2832026303