16

 O   -0.0888575769   -0.0187101304    0.1190765280
 C   -0.0224327763    1.1878533016    0.1590428630
 C    1.2272897480    1.9531021678   -0.0169927952
 C    1.1845582029    3.2877087533    0.0465230680
 C    2.3819254766    4.1607966008   -0.1163888725
 N    3.5939122264    3.4033391350   -0.3498899663
 C    3.7485434752    2.0455152734   -0.4337436297
 O    4.8368629778    1.5440255381   -0.6368547488
 C    2.4991364623    1.1938906756   -0.2612453997
 H   -0.9261912325    1.8135146540    0.3362478756
 H    0.2408690455    3.7973132606    0.2254288316
 H    2.2014852973    4.8624640866   -0.9469667091
 H    2.4895199757    4.7901766091    0.7819521191
 H    4.4556651996    3.9152212375   -0.4722671442
 H    2.6881920773    0.4885239751    0.5559849037
 H    2.4034682714    0.5604955320   -1.1505098036