18

 C   -0.0330230581    1.5060138522    0.2147402180
 C    0.5454246860    0.1050690005    0.1578060719
 O   -0.0141571862   -0.6531501176    1.2482736868
 C    0.4530570177   -1.9241921663    1.3618833160
 C    1.4563769331   -2.4175536609    2.1628577965
 O    2.2551976653   -1.7033325296    3.0107905507
 C    1.5272984163   -3.8210295040    1.9515660067
 C    0.5591806504   -4.1402499428    1.0253592760
 N   -0.0870823332   -2.9864175655    0.6607358650
 H    0.2194211277    1.9902056922    1.1624724642
 H    0.3674178817    2.1134195929   -0.6022408017
 H   -1.1226358648    1.4776270410    0.1250145287
 H    0.2979100095   -0.3865942159   -0.7928598294
 H    1.6393518908    0.1164231640    0.2494018379
 H    1.8778119072   -0.8192556110    3.0823185926
 H    2.2141464083   -4.5029573873    2.4267564882
 H    0.2788528793   -5.0909960132    0.6029658279
 H   -0.9042547711   -2.9235081886    0.0799939040