22

 C   -0.0021089644    1.5200079717   -0.0472807114
 C    0.0564918656   -0.0214624480   -0.0197372194
 C    0.7374809881   -0.6125263185   -1.2622871802
 N   -0.0142674868   -0.3101625746   -2.4776359938
 C    0.4859857851    0.7795692049   -3.3136860324
 C    0.6557041498   -0.6370470360   -3.7320577523
 C    0.7866942962   -0.4651476324    1.2489620286
 C   -0.0557206810   -0.6086669578    2.5041322238
 O    1.9772162601   -0.6869565427    1.2530829209
 H    1.0058531267    1.9433216433   -0.1091139747
 H   -0.5772821626    1.8608134024   -0.9108919810
 H   -0.4807735291    1.9206618541    0.8518508192
 H   -0.9736800356   -0.3964798112    0.0198273299
 H    1.7817956498   -0.2640773175   -1.3094283518
 H    0.7751504167   -1.7030555510   -1.1582213658
 H   -0.2694001136    1.4072665123   -3.7781966138
 H    1.3780831722    1.3084268590   -2.9820584730
 H    1.6612374826   -1.0518289259   -3.6788548705
 H    0.0261808245   -1.0658726733   -4.5066277065
 H   -0.7186952000    0.2513862424    2.6423164774
 H   -0.7002389236   -1.4906866774    2.4038865079
 H    0.5877132696   -0.7332449538    3.3759880288