16

 O    0.0971092257    1.2829801753    0.5641273020
 C    0.0325456688    0.0054901578   -0.0552614209
 C   -1.3807031879   -0.5221821055   -0.1379601459
 C   -1.8716260521   -1.2860623793   -1.1409558980
 C   -3.2325575695   -1.7889421680   -1.0771093945
 N   -3.7296398720   -2.5323240813   -2.0066948952
 C   -3.9394698796   -1.3419708921    0.1332334440
 N   -3.4533074072   -0.5951057382    1.0720243298
 N   -2.1718132303   -0.2081743569    0.9346790786
 H   -0.2984238459    1.9257558778   -0.0349885033
 H    0.4819922199   -0.0001969651   -1.0558962373
 H    0.6352774060   -0.6528266836    0.5809107537
 H   -1.2581676095   -1.5406868188   -1.9968625813
 H   -4.6966666550   -2.7775434227   -1.7820259201
 H   -4.9743013076   -1.6464917660    0.2742979136
 H   -1.8283549837    0.4316824368    1.6334192549