16

 C   -0.1173140798    1.3965863739    0.3625143094
 C   -0.0132893332   -0.0382015876   -0.0961048041
 O    1.0119070695   -0.5624906806   -0.4667088844
 C   -1.2898874296   -0.8355908756   -0.0745867839
 C   -2.0728656960   -1.4573518278   -1.2663915715
 C   -2.9058319024   -1.5954586734    0.0284240551
 C   -1.6484653392   -2.0818162609    0.7846872827
 O   -2.5511666006   -0.1974491172    0.3806799083
 H    0.8591509898    1.8783418035    0.3058192408
 H   -0.8472530586    1.9314390394   -0.2549047163
 H   -0.5048305901    1.4313443634    1.3866233457
 H   -2.4528765288   -0.7363527743   -1.9906416493
 H   -1.6639082790   -2.3598547868   -1.7239327964
 H   -3.9474223009   -1.8882867471    0.1547871233
 H   -1.2037534104   -3.0369559895    0.5000137322
 H   -1.6558696905   -1.9090796494    1.8612063185