12

 N    0.0011742835    1.3926129439    0.1308578724
 C   -0.0630944039    0.0234097321    0.0399285129
 C   -1.1890642250   -0.7451713811    0.0111100240
 N   -1.1513779738   -2.1233542029   -0.0150040212
 C   -0.0022603422   -2.6745315014   -0.0198851497
 O    1.1883865782   -2.0234419495   -0.0119173158
 C    1.2401632509   -0.6448368459    0.0081250153
 O    2.3075073778   -0.0860738807   -0.0117793334
 H    0.9024702578    1.7790745588   -0.1104727377
 H   -0.7963850246    1.9219745649   -0.1825838574
 H   -2.1783783909   -0.2978448149    0.0136220335
 H    0.1366665922   -3.7489976932   -0.0330977628