21

 C    0.0797829682    1.5561515528   -0.2121734323
 C    0.0651872248    0.0467262721   -0.0666158844
 C    0.3522276303   -0.7271747834   -1.3644693416
 C    0.2592652574   -2.1892011752   -0.8692139026
 C   -0.0599536120   -1.9317652465    0.5987617199
 C    0.7864102506   -0.7186477073    1.1122543824
 C   -0.3760517661   -0.4076416472    2.0698051056
 O   -0.4180520972    0.8840624725    2.6312213406
 C   -1.0608983292   -0.7356723015    0.7146791228
 H    1.0565140901    1.8900477295   -0.5834508684
 H   -0.6666052231    1.8702859984   -0.9525466390
 H   -0.1244999152    2.0652150707    0.7274836493
 H   -0.3844615473   -0.4912865507   -2.1405061486
 H    1.3385025564   -0.4748737903   -1.7696322878
 H   -0.5302969689   -2.7608975623   -1.3675884413
 H    1.1944395920   -2.7444223313   -0.9952281567
 H   -0.1931157517   -2.7885054575    1.2627462131
 H    1.8543845399   -0.7185436554    1.3423696722
 H   -0.5375403244   -1.1641610370    2.8511900356
 H   -1.2520799795    0.9757722065    3.1020896803
 H   -2.1295349152   -0.7572229069    0.4839256410