19

 C   -0.2258702206    1.6299140050    0.1707667179
 C   -0.0013634761    0.1314951015   -0.0104830078
 C    0.4813124603   -0.6145285525   -1.3185423588
 C    1.6014891954   -0.4102367512   -2.4011077910
 C    2.4433886412    0.3166399266   -1.3401449179
 C    1.8159694477   -0.9370077260   -0.6123262699
 C    2.2487983328   -1.7654666663   -1.8683860795
 C    1.1990307460   -0.5800725401    0.7543013726
 O    1.4374392008   -0.7615269964    1.9074869978
 H    0.6422158805    2.2379329935   -0.0901960293
 H   -1.0667410646    1.9660022758   -0.4443401447
 H   -0.4707923187    1.8387613876    1.2175243579
 H   -0.9196159201   -0.3743488942    0.3131869565
 H   -0.1624325815   -1.4758741890   -1.5168025781
 H    1.4849198293   -0.1407590007   -3.4544888275
 H    3.5300949409    0.2801126566   -1.4489214654
 H    2.1161966694    1.3071742591   -1.0339900067
 H    1.6844918469   -2.6835246343   -2.0468485936
 H    3.3164442404   -1.8973930451   -2.0629640425