11

 C   -0.0115450038    1.5002632076    0.0434035852
 C    0.0026838551    0.0110236792   -0.0272936283
 C   -0.0774680933   -0.8100816436   -1.1024775160
 O   -0.0226615477   -2.1069819008   -0.6642472285
 C    0.0896683237   -1.9935324196    0.6764717629
 N    0.1107441581   -0.7806298966    1.1186867263
 H    0.9068365528    1.8773315888    0.5052723796
 H   -0.1019742959    1.9406459979   -0.9528066151
 H   -0.8489191874    1.8534988807    0.6541083353
 H   -0.1696517169   -0.6658941423   -2.1650236938
 H    0.1497966653   -2.9130275314    1.2375538624