22

 C   -0.8481299171    1.2191178117   -0.0134427291
 C    0.0865197211    0.0122823839   -0.0424583092
 C    1.2424140983    0.1410475974   -1.0600806646
 N    2.2633347847   -0.7395206013   -0.5262731220
 C    3.4567840284   -1.0889824159   -1.2583553206
 C    2.0945959746   -1.0421444724    0.8000372925
 O    2.8592864417   -1.7001637515    1.4777194671
 C    0.8087892780   -0.3549279075    1.2779889126
 C    1.1882829989    0.8196024246    2.1944466543
 H   -0.3196150972    2.1358852322    0.2652141532
 H   -1.2996178451    1.3826169768   -0.9981053680
 H   -1.6633031812    1.0713705851    0.7021082701
 H   -0.4974692396   -0.8672717587   -0.3393056108
 H    0.9427965535   -0.1694293759   -2.0684455806
 H    1.6083273246    1.1782236711   -1.1350076450
 H    4.0350847338   -0.1965834050   -1.5332027953
 H    4.0653774986   -1.7238525030   -0.6120102848
 H    3.2106647114   -1.6336944608   -2.1778414252
 H    0.2279408557   -1.0743945431    1.8622457041
 H    1.7714045624    1.5797258792    1.6628581307
 H    0.3000151579    1.3044794720    2.6088546909
 H    1.7992996266    0.4502569213    3.0221059998