17

 C   -0.0318632503    1.4885845375    0.1262792409
 C   -0.0056542650    0.0037660255   -0.0300444118
 C   -0.0054201628   -0.7925736336   -1.1700471922
 C   -0.0339264842   -0.3244001850   -2.5952435301
 C    0.0490290228   -2.1396185967   -0.7367226062
 C    0.0814775272   -2.1420376542    0.6472517286
 N    0.0487554884   -0.8238468197    1.0564972712
 C    0.1263948018   -3.2067209779    1.5692101745
 N    0.1643235511   -4.0725835122    2.3406628475
 H    0.9573354423    1.8951072185    0.3715105543
 H   -0.3585113594    1.9639908954   -0.8010280606
 H   -0.7211172476    1.7993364078    0.9194905019
 H    0.9743475259   -0.2075106956   -3.0109678651
 H   -0.5639488033   -1.0402295683   -3.2304893730
 H   -0.5392544358    0.6408362607   -2.6967364690
 H    0.0575006927   -3.0205004257   -1.3601236643
 H    0.0478429461   -0.5268834564    2.0178897733