20

 C   -0.1590919251    1.5049622851   -0.0559349197
 C    0.0487578518   -0.0118150435   -0.0515001777
 N    0.7830731948   -0.4871076155   -1.2068661210
 N    0.1385935779   -0.6711557395   -2.3923229525
 C    1.0730825804   -1.1086011536   -3.2305522395
 C    0.7231504339   -1.4389949673   -4.6475531696
 C    2.3368251004   -1.1887072324   -2.5982810903
 C    2.1082395917   -0.7729353310   -1.2995848897
 N    2.9465935306   -0.6999543885   -0.1782073852
 H    0.7958196155    2.0401172211   -0.0215287461
 H   -0.6860626016    1.8077306800   -0.9643032162
 H   -0.7523685728    1.8109436438    0.8114514813
 H    0.5975464888   -0.3340247623    0.8386874359
 H   -0.9172946582   -0.5237036990   -0.0542200180
 H    1.2967022487   -0.8310681661   -5.3564229295
 H    0.9339736333   -2.4892715139   -4.8787926008
 H   -0.3398717468   -1.2557200265   -4.8186637307
 H    3.2794623110   -1.4942111259   -3.0244877480
 H    3.8845582268   -1.0020695539   -0.4066508842
 H    2.9952670490    0.2289963487    0.2255725415