15

 O   -0.0715929903    1.4447070561   -0.4011307021
 C   -0.0382427219    0.2290153965    0.3254062632
 C   -1.3612361891   -0.4888291088    0.2282913981
 O   -1.6327108967   -1.1070815218   -1.0327661508
 C   -1.4776524012   -1.9617851767    0.1151324387
 C   -0.3437989956   -2.8406662752    0.1473815073
 C    0.5787154651   -3.6238936852    0.1926293976
 C    1.6225155791   -4.4933685108    0.2414181559
 C    2.5490836098   -5.2664894051    0.2852850218
 H   -0.2362652329    1.2165710673   -1.3230369942
 H    0.7662683721   -0.4351845972   -0.0177932177
 H    0.1630868059    0.4967119860    1.3680671153
 H   -2.2142782133    0.0444729655    0.6506048596
 H   -2.4107094694   -2.4121395131    0.4539380135
 H    3.3647839386   -5.9454325374    0.3231089740