21

 C   -0.0457070146    1.6185542893    0.0750521211
 C    0.0309238134    0.0859433202    0.0131824832
 C    0.7603281424   -0.3638877665   -1.2709394276
 C   -0.0428924758   -0.0727623151   -2.5154770312
 O    0.3438587676    0.5584720419   -3.4653692322
 C    0.7110745422   -0.5196202061    1.2771715997
 C    0.0456725067   -0.0716237461    2.5960296138
 C    0.7347722881   -1.9814240784    1.2113703363
 C    0.7243792554   -3.1835591212    1.1719432409
 H    0.9502907553    2.0544754869    0.2176258411
 H   -0.4462391144    2.0250924591   -0.8586760952
 H   -0.6881574074    1.9665760874    0.8869656217
 H   -0.9917119093   -0.3159295584   -0.0205669712
 H    1.7400406587    0.1165932644   -1.3626973136
 H    0.9104408055   -1.4511866205   -1.2311744821
 H   -1.0724852123   -0.5054910942   -2.4996941571
 H    1.7523609059   -0.1648478054    1.2874337511
 H   -1.0192389454   -0.3247243927    2.5972534453
 H    0.5121349892   -0.5776338750    3.4446646304
 H    0.1481463999    1.0055601279    2.7443744780
 H    0.7299729988   -4.2450996474    1.1392171877