15

 O    0.0589448779    1.2994743320    0.3474168574
 C    0.0422318175   -0.0776027789    0.1483336368
 C   -0.3860777490   -0.8592200806    1.3410676174
 O   -0.6893661648   -0.1791285100    2.4923136180
 C   -1.3459217539   -0.7807469650    0.0945678440
 C   -2.4751087419    0.0986198731    0.1693022880
 C   -3.3738893666    0.8981306348    0.2175694502
 C   -1.4519277178   -1.9563197135   -0.7203967915
 C   -1.4959442784   -2.9574036511   -1.3855489050
 H   -0.7001348750    1.6884816227   -0.1093125055
 H    0.8006596199   -0.4586695461   -0.5302078767
 H    0.0272143180   -1.8465912782    1.5151994598
 H   -0.5600154441    0.7607858495    2.2926601119
 H   -4.2013724743    1.5614636110    0.2791011386
 H   -1.5549087977   -3.8371078296   -1.9773986835