17

 C   -0.1272084173    1.5403832549    0.1103830823
 C   -0.0186852392    0.0351717814    0.0665079258
 C    1.2390395034   -0.6508589401   -0.3246062079
 C    0.7833957324   -0.7306691763    1.1389898109
 C    1.5121460874    0.0160598836    2.1230032039
 N    2.0850541623    0.5817400037    2.9559387158
 C    0.1930793098   -2.0636538956    1.5632002364
 N    0.3897115931   -2.4110906329    2.8582942566
 O   -0.4173763289   -2.7507982175    0.7652674774
 H    0.8118007668    2.0051079038    0.4237293599
 H   -0.3793619466    1.9244251174   -0.8833942610
 H   -0.9100519750    1.8617461101    0.8041819146
 H   -0.9254657916   -0.5032641922   -0.1910429697
 H    1.1678349075   -1.5890089252   -0.8615072925
 H    2.1198126171   -0.0490436431   -0.5187708241
 H    0.9063411881   -1.8338513392    3.5001193379
 H    0.0143711506   -3.2899047928    3.1739591739