18

 O    0.0456677580   -0.0726186139   -0.2489473942
 C    0.1453775232    1.0181737445    0.2517504174
 C    1.3281385048    1.9173529924    0.0751568891
 C    2.2678323704    1.6420476735   -1.0545339344
 N    2.6751875572    1.2800307888    0.2940105194
 C    3.5103402986    2.2762348902    1.0129721244
 C    2.6650122581    3.5091425337    1.3400282970
 C    2.1677123423    4.3927436290    0.2253383251
 C    1.2949450340    3.2738251796    0.7377765742
 H   -0.6677256647    1.4347856966    0.8892409431
 H    2.0448906468    0.7917193703   -1.6934199200
 H    2.7385115349    2.4842367291   -1.5532707952
 H    3.8467982957    1.8073263116    1.9425708444
 H    4.4029054449    2.5062869815    0.4198112618
 H    2.7761950523    3.9452282744    2.3269454545
 H    1.8727669543    5.4014806731    0.4962123709
 H    2.6128759685    4.3239379579   -0.7600224974
 H    0.3873013209    3.5271734078    1.2748823599