18

 C    0.2979202151    0.9160015150    0.4982073608
 O   -0.4154024142    0.2705097467   -0.5603571323
 C    0.3403571726   -0.5281725149   -1.3502755970
 C    0.6811925664   -1.8606748824   -1.2317762893
 C    0.3314906674   -2.8091705322   -0.1307209692
 C    1.4428177230   -2.1044443229   -2.4086208564
 N    2.0903134879   -3.2977371535   -2.7366063328
 N    1.5545079910   -1.0315821395   -3.1844301833
 N    0.8889210554   -0.0604300596   -2.4987863123
 H    0.7522048172    0.1820075700    1.1733842343
 H    1.0835432778    1.5709185370    0.1023905123
 H   -0.4337296186    1.5133584524    1.0453885586
 H   -0.1959389045   -3.6959975250   -0.5053169084
 H    1.2190669490   -3.1679208143    0.4044723425
 H   -0.3297177424   -2.3271341418    0.5949660094
 H    1.5279219198   -4.1181649992   -2.5500955249
 H    2.3943499342   -3.2942968378   -3.7026796221
 H    0.7414559131    0.8397029121   -2.9201443501