14

 O   -0.1425853644    0.0255743241    0.3696437074
 C   -0.0201485320    1.1796349220    0.0237201844
 C    1.2251775975    1.8949975392    0.0074710936
 C    2.2647070003    2.5255574492   -0.0173139042
 C    3.4220180724    3.2231894095   -0.0437265633
 C    4.4607283423    3.8517102223   -0.0756486167
 C    5.6829203273    4.5876257374   -0.0816815919
 C    5.9999283105    5.4772953175   -1.2482896266
 N    5.6602438689    6.0689700315    0.0407478923
 H   -0.8886332854    1.7803467089   -0.3145455513
 H    6.5116031331    4.1254515361    0.4481589599
 H    7.0396249074    5.5801595984   -1.5446337085
 H    5.2787161932    5.5146801045   -2.0590057058
 H    4.6942508490    6.3890384896    0.0348936907