14

 O    0.0807969192    1.3060600832    0.3206974120
 C    0.0721482274   -0.0689638185   -0.0024078893
 C   -1.3485017924   -0.5425517267   -0.2597651749
 C   -1.6330776074   -2.0554587133   -0.1556560470
 C   -2.4588737031   -1.6723267382    1.0895639390
 O   -2.1713756807   -0.2668883250    0.9071458244
 H   -0.5744596244    1.4114501991    1.0222454046
 H    0.6878863450   -0.1990629294   -0.8999181509
 H    0.5168719064   -0.6773539106    0.8035007189
 H   -1.7576202321   -0.0376643049   -1.1436296503
 H   -2.2047417063   -2.4806284331   -0.9810533228
 H   -0.7557668533   -2.6781136406    0.0328528718
 H   -3.5345727424   -1.8740177938    1.0293853805
 H   -2.0818601359   -2.0472954383    2.0484465739