19

 C   -0.0029796429    1.5620192222    0.0231081659
 C   -0.0067727517    0.0260462269   -0.0302041217
 C    0.7453017433   -0.5559218297   -1.2624174994
 C    2.1952934968   -0.7963905899   -0.7364751727
 C    1.9942206187   -1.2855961378    0.7022198902
 C    0.7487148749   -0.5419564117    1.1869099505
 O    0.4122823788   -0.3875609770    2.3323952402
 C    0.1393024233   -1.7990928919   -1.7295705765
 C   -0.3568793276   -2.8326462520   -2.0927177475
 H    1.0119048340    1.9667154077   -0.0564217783
 H   -0.5977324734    1.9792065270   -0.7948155548
 H   -0.4260863146    1.9000353074    0.9724295082
 H   -1.0410550546   -0.3256633212    0.0085479898
 H    0.7519373343    0.1642195358   -2.0876964584
 H    2.7444632573   -1.4981650478   -1.3658095724
 H    2.7383652494    0.1546994640   -0.7428103160
 H    1.7611754281   -2.3581514146    0.7162258557
 H    2.8384634356   -1.1239317817    1.3752497498
 H   -0.7999947197   -3.7385411059   -2.4253958325