19

 C   -0.1171449418    1.6630047674    0.0941581497
 C    0.0210310038    0.1380631727    0.0857895960
 C   -1.3576594119   -0.5285962795    0.0666586121
 O   -2.4034695950    0.0405879532   -0.1072398173
 C    0.7640050722   -0.4184333380   -1.1286183787
 C    1.7014821496   -1.3090427949   -0.7947604702
 C    1.8482878344   -1.4293065667    0.6838822036
 C    2.2947080045   -0.1517538340    1.3668150332
 C    0.8245123098   -0.4584873573    1.2544781695
 H    0.8655429552    2.1408428828    0.0910719396
 H   -0.6762007149    2.0052835009   -0.7804838242
 H   -0.6644915153    1.9962633485    0.9803902270
 H   -1.3147287482   -1.6327978272    0.2081836318
 H    0.5167587801   -0.0981673681   -2.1343142231
 H    2.3335808068   -1.8434423397   -1.4953366561
 H    2.0722057403   -2.3851372703    1.1432208800
 H    2.7263663869   -0.2393262942    2.3583866567
 H    2.7299549983    0.6259446765    0.7486364078
 H    0.2929238750   -0.6902250222    2.1707972827