16

 C   -0.0058358506    1.4571384292    0.2374355309
 C   -0.0761666142   -0.0252245628   -0.1208904046
 C   -1.4957303340   -0.5729696302   -0.0961048047
 O   -2.4664245440    0.0847424115    0.2055083039
 N   -1.6043763712   -1.8951732894   -0.5416583621
 C   -1.0795887632   -3.0521330039    0.1642469381
 C   -2.5552193718   -2.8212433680    0.0244001197
 H    1.0290302780    1.8101420347    0.2133543138
 H   -0.5930454050    2.0553118862   -0.4636936142
 H   -0.4115450686    1.6378090931    1.2359095512
 H    0.3398882385   -0.2182577296   -1.1169437438
 H    0.5343577879   -0.6243629133    0.5677621082
 H   -0.5782797624   -3.7991074948   -0.4453083764
 H   -0.6407438323   -2.8931590238    1.1468952978
 H   -3.1050312138   -2.4862454971    0.8997254288
 H   -3.1277443732   -3.4090142419   -0.6871248568