19

 O   -0.2821547423    1.4280030797    0.0470897401
 C   -0.0757142361    0.0222202975    0.0926121622
 C    0.4296031303   -0.4499546255    1.4795405237
 N   -0.7572836341   -0.8584576406    2.2437426582
 C   -1.7156898731   -1.0373632868    1.4154435076
 C   -1.3948693920   -0.7647893879   -0.0416910577
 N   -2.9552369378   -1.5560801054    1.7690382734
 C   -4.1363050390   -0.6978341412    1.8341909024
 C   -3.5219114586   -1.2689467642    3.0721620946
 H   -0.7928055605    1.6738627999    0.8267517949
 H    0.6290608598   -0.1891815684   -0.7143778755
 H    1.1171461555   -1.3023265496    1.3930246802
 H    0.9716747354    0.3504799875    1.9940522246
 H   -2.1637563030   -0.1960801810   -0.5717628395
 H   -1.2603378608   -1.7149573637   -0.5728278013
 H   -3.9989940014    0.3663383535    1.6559030031
 H   -5.0490730095   -1.1196638208    1.4240716099
 H   -3.9955338681   -2.1091384732    3.5705668359
 H   -2.9550222047   -0.6018133996    3.7145616831