20

 C   -0.0516884213    1.5574556945    0.0530465803
 C    0.0105490222    0.0207905815    0.0009983763
 C    0.7053938090   -0.4927663425   -1.2407122202
 C   -0.0171870066   -0.7431135513   -2.4112099474
 C    0.6439731453   -1.1798487952   -3.5557449389
 C    2.0198358559   -1.3732416453   -3.5544415304
 C    2.7608644539   -1.1284834385   -2.3905916485
 N    4.1523558060   -1.2638287363   -2.3892083970
 C    2.0857172356   -0.6914801354   -1.2436114671
 H    0.9539735409    1.9894509506    0.0417385682
 H   -0.5922129712    1.9558399797   -0.8113646553
 H   -0.5600056243    1.8996209708    0.9604058098
 H    0.5296353721   -0.3488600035    0.8930764430
 H   -1.0078359029   -0.3823343268    0.0423289332
 H   -1.0932293752   -0.6013311253   -2.4220823172
 H    0.0803368726   -1.3803129113   -4.4616977037
 H    2.5274223514   -1.7146248807   -4.4518922484
 H    4.5111066102   -1.9135758164   -3.0740164479
 H    4.5565925867   -1.4336887823   -1.4794811611
 H    2.6546841800   -0.5030529863   -0.3358278879