18

 C   -0.0633743840    1.5051297296    0.0665854979
 C    0.0815383305    0.0166663343   -0.0158609162
 O   -0.5748631270   -0.7907207763    0.9837625768
 C    0.8583548305   -0.8629153665    0.8609299886
 C    1.3169514184   -1.9290529979   -0.1177754519
 C    0.1572953011   -2.2608634436   -1.0936947178
 C    1.2342054706   -2.3891239071   -2.1784918140
 N    1.7305372499   -1.1594254330   -1.4162990445
 C    0.2291661810   -0.7321144803   -1.3378735883
 H    0.7218947009    1.9956011548   -0.5178558731
 H   -1.0319978134    1.8267276710   -0.3319974573
 H    0.0063282820    1.8427248330    1.1034652289
 H    1.4389366641   -0.5381208645    1.7173567592
 H    2.0208879674   -2.6984149942    0.2012949934
 H   -0.7281216080   -2.8732790925   -0.9047839601
 H    1.9200854805   -3.2397700391   -2.1280766644
 H    0.9518768694   -2.1769240867   -3.2137028030
 H   -0.1670372539   -0.2892398311   -2.2532077042