15

 C   -0.0157612526    1.4583898675    0.0302688835
 C    0.0076295908   -0.0317475824   -0.0206426869
 N    0.0393203293   -0.7561454092   -1.1299220070
 C    0.0736705021   -2.0614662350   -0.7330041422
 N    0.1704913479   -3.0783758762   -1.6509147274
 C    0.0564853464   -2.1469439554    0.6555976223
 N    0.0159113611   -0.8134215542    1.0815396442
 C    0.0600459205   -3.2512480820    1.5149655128
 N    0.0583993227   -4.1821849471    2.2112929774
 H    0.9502779837    1.8629770160    0.3534827052
 H   -0.2291594292    1.8419825794   -0.9677953548
 H   -0.7800447083    1.8273188952    0.7218579285
 H   -0.1454208817   -2.8226629134   -2.5745249985
 H   -0.1509686937   -3.9848466956   -1.3466695017
 H   -0.0071117689   -0.5108285776    2.0409626444