14

 O    0.0286084008    0.0233842855    0.0705037203
 C    0.0115993103    1.2148376346   -0.0113937833
 C   -1.1086555939    2.2908871001    0.0240060300
 C   -0.0533763797    3.1254317313    0.8282827848
 C    1.0405297741    2.3499018933    0.0216226423
 N    1.1257986704    2.9121889408   -1.3501274624
 C   -0.0052078013    3.1593300236   -1.8928072593
 N   -1.2244245803    2.8146618852   -1.3436814226
 H   -2.0843454742    2.0466693906    0.4405042161
 H   -0.0714881946    4.2074063349    0.6861381659
 H   -0.0508860219    2.8663815926    1.8885593928
 H    2.0352048270    2.1944468594    0.4353651356
 H   -0.0461124654    3.6374129704   -2.8706685470
 H   -2.0186642513    3.4018566476   -1.5593868332