23

 C   -0.1136786799    1.5732016342    0.0116662155
 C   -0.0644756090    0.0444891151    0.0028725764
 C   -1.4440785951   -0.6235952358    0.0125076702
 C   -1.3077273760   -2.1548634724    0.0029701127
 O   -2.0899374344   -0.1738781528    1.1974206362
 C   -3.4836219222   -0.4362742533    1.2709425641
 C   -4.2002989874    0.1220913091    0.0429420832
 C   -3.5073582527   -0.4229593096   -1.2045097430
 O   -2.1124913961   -0.1612365146   -1.1549066406
 H    0.8988349833    1.9881516980    0.0041403677
 H   -0.6452535218    1.9480103713   -0.8661256813
 H   -0.6281552746    1.9383850652    0.9035896105
 H    0.4668490543   -0.3130721859   -0.8857282891
 H    0.4838023837   -0.3226624219    0.8771488174
 H   -0.7508517736   -2.4799697742    0.8854698815
 H   -2.2732131975   -2.6656674339    0.0094369367
 H   -0.7678302064   -2.4704056736   -0.8934415836
 H   -3.6780042928   -1.5167037763    1.3646966253
 H   -3.8274084700    0.0393202369    2.1938087509
 H   -5.2595194889   -0.1581415130    0.0515910709
 H   -4.1318657976    1.2151216205    0.0481664355
 H   -3.7036232586   -1.5023360266   -1.3061403137
 H   -3.8687236365    0.0625047736   -2.1154440134