20

 C   -0.1897344361    1.5620644470   -0.0497940695
 N    0.0140088459    0.1404051368    0.0870429883
 C   -1.1753151228   -0.7211323970    0.2707627516
 C   -0.4166192933   -1.5355149065    1.3338327133
 O    0.4758337484   -2.5294934336    0.8075013834
 C    1.6064412577   -1.6161259230    0.8427514459
 C    0.6939252309   -0.4520199725    1.2797644295
 C    1.1360342445    0.4279330290    2.4262948824
 O    2.3610138870    1.0997903560    2.1578236774
 H    0.7692762196    2.0796830883   -0.1766244318
 H   -0.7705582883    1.7505650671   -0.9592211845
 H   -0.7328301739    2.0375186475    0.7891076359
 H   -2.0358563508   -0.1888160715    0.7094525734
 H   -1.4998216608   -1.2588680102   -0.6262141131
 H   -0.9546863836   -1.8721914685    2.2231105077
 H    2.3456200762   -1.9305904693    1.5903227531
 H    2.0804606776   -1.4998132433   -0.1359111754
 H    0.3421428924    1.1341812789    2.7114741962
 H    1.3320525916   -0.2057428794    3.2977187352
 H    2.1978647976    1.7579056144    1.4754986808