15

 O   -0.0924404021    1.3512430704   -0.3390492199
 C    0.0185158370   -0.0048126740    0.0732573680
 C   -1.3936554841   -0.5552278581    0.1237810864
 N   -2.0603313579   -0.6321100685   -1.1874889703
 C   -2.0493702467   -1.9983580165   -1.2702150468
 O   -2.2857495995   -2.7929882264   -2.1428607266
 C   -1.5233532384   -2.1116784677    0.1856296311
 O   -0.3240621817   -2.8279662503    0.3383205734
 H    0.7941206449    1.7111753145   -0.4334693014
 H    0.6192220863   -0.5974629610   -0.6288199739
 H    0.4780708497   -0.0956488809    1.0689404643
 H   -1.9826310423   -0.0099838125    0.8678258663
 H   -2.1780500648    0.0802059874   -1.8938339659
 H   -2.2874467019   -2.4454955152    0.8992008738
 H   -0.3412527684   -3.5465213411   -0.3049536085