18

 C    0.2554484786    1.5650340828   -0.0469597523
 C    0.0952637167    0.0612926370    0.0560731107
 N    1.0030266075   -0.7485705020   -0.8033596551
 C    1.2573613477   -1.7126772865    0.3008115726
 C    0.6736142469   -0.6876455950    1.2918100275
 O    1.7656791389   -0.0396941217    1.9416734486
 C    3.0188477517   -0.5110928704    1.4691811267
 C    2.7507665389   -1.7471444478    0.6067734776
 O    3.5628079085   -2.5557550942    0.2458606250
 H    1.2852095352    1.8592396312    0.1668884054
 H   -0.0022116030    1.9101269431   -1.0537093858
 H   -0.4046507375    2.0724094071    0.6645894468
 H   -0.9614050719   -0.2202119901   -0.0698344042
 H    0.6048980343   -1.1459569989   -1.6458527418
 H    0.7965267094   -2.7004669923    0.2254706117
 H   -0.0401210468   -1.0069107696    2.0532889277
 H    3.5312163558    0.2506225659    0.8649531168
 H    3.6633397992   -0.7678851787    2.3169538222