12

 O   -0.0215155748    0.0067194078    0.2160318481
 C   -0.0105511172    1.1774111966    0.0000835913
 O   -1.1285052543    1.9315279835   -0.1680758056
 C   -0.8365586516    3.2612410656   -0.6304836771
 C    0.6634144304    3.4209261940   -0.5118763074
 O    1.1272526825    3.1789576966    0.8095933179
 C    1.1953749467    2.0977377201   -0.1394571277
 C    2.4892585033    1.5768492909   -0.4816812741
 N    3.5228196017    1.1493266035   -0.7685942585
 H   -1.1698016628    3.3576695435   -1.6686943855
 H   -1.3807927176    3.9709438746   -0.0020611807
 H    1.2187199439    4.1393646434   -1.1057726908