15

 O    0.0211468920    0.0505453489    0.5254289953
 C   -0.0089968023    1.1815491171    0.1509639829
 C   -1.1530328855    2.1493630986   -0.2332784027
 C   -0.0857042710    3.1846987554   -0.7212450540
 C    0.3993519713    4.1936702450    0.3562571722
 N    1.2256466982    3.1342119211    0.9755674147
 C    1.0701184482    2.2325864053   -0.1892412683
 C   -0.1863302688    3.6339453358   -2.0855220671
 N   -0.2604062968    3.9991188715   -3.1808396033
 H   -1.7880175089    1.7525834699   -1.0295638909
 H   -1.7862096928    2.4847976825    0.5914770444
 H    0.9727284308    5.0138600069   -0.0903991233
 H   -0.3746489784    4.6101470682    1.0093328235
 H    2.1787535604    3.3885449086    1.1977958427
 H    1.9623807238    1.9535223250   -0.7531486662