18

 O    0.0573934215    0.0630097131   -0.5941932838
 C    0.0149214117    1.1916282910   -0.1723884046
 C   -1.2542088259    1.9765132007    0.1759522830
 C   -0.7864817934    3.2635607156    0.8881956261
 C   -0.6469455663    3.0347457432    2.4075462167
 C    0.6375923039    2.1861454585    2.5031759857
 N    1.4947212450    2.6320566756    1.3728737962
 C    0.6903717512    3.4364664504    0.4596900087
 C    1.1985146744    2.1031904004    0.0158905908
 H   -1.7380305716    2.2166966278   -0.7788012688
 H   -1.9585082893    1.3651940235    0.7476949577
 H   -1.4115242468    4.1234792284    0.6437098284
 H   -0.4990672903    3.9918379650    2.9186041129
 H   -1.5207403086    2.5496679750    2.8519629429
 H    1.1853940946    2.3634640264    3.4322854667
 H    0.4355151063    1.1112436260    2.4447169986
 H    1.0890274768    4.3834628720    0.1101103469
 H    2.0730897069    1.9371204875   -0.6052145041