23

 C   -0.0290920284    1.5968738856   -0.0345050413
 C    0.0827185904    0.0703129440   -0.0235972330
 C    0.8087467235   -0.5385903068   -1.2195951611
 C    2.3210494024   -0.5248657760   -1.2229641490
 C    1.5748760083   -1.7461887374   -0.7389743069
 C    1.3334902229   -1.9001928423    0.7612170809
 C    2.5168848657   -2.4392773378    1.5672670866
 C    0.8080158191   -0.5167776183    1.2232201261
 O    1.9151246630    0.2735103674    1.6556198302
 H    0.9592624722    2.0649328170   -0.0715200194
 H   -0.5867786626    1.9382641537   -0.9121798826
 H   -0.5580267295    1.9712718290    0.8510243910
 H   -0.9351298100   -0.3454439676   -0.0145394651
 H    0.2934386570   -0.5422833556   -2.1748753663
 H    2.8046410110   -0.6014739510   -2.1913558448
 H    2.8445934765    0.0893205088   -0.5009310719
 H    1.6285270474   -2.6513238130   -1.3353321595
 H    0.4928143437   -2.5989683208    0.8769615355
 H    3.3812599486   -1.7773575598    1.4855718239
 H    2.2654783217   -2.5326457752    2.6289608793
 H    2.8057940501   -3.4304902161    1.2022665330
 H    0.1037655564   -0.6309767738    2.0603161436
 H    1.5731348805    1.1209042959    1.9553856209