17

 C   -0.1199238831    1.4861338153    0.2097080540
 C   -0.0291025669    0.0113803340    0.0058408094
 C    0.0174991416   -0.7567747461   -1.1294494778
 N    0.1211853398   -2.0950851360   -0.8261175988
 C    0.1370723956   -2.1452005714    0.4818653101
 N    0.0540162078   -0.9007855727    1.0505561951
 C   -0.0062419576   -0.6041329879    2.4618664841
 C   -1.4209704616   -0.2683088265    2.9369875139
 O   -1.6515246992    0.4323405365    3.8838578250
 H    0.7538678448    1.8892685564    0.7367802751
 H   -0.1739327431    1.9819954599   -0.7620446816
 H   -1.0083867441    1.7832568240    0.7801734671
 H   -0.0139100881   -0.4118499431   -2.1524909391
 H    0.2146203609   -3.0376114321    1.0868144577
 H    0.3258227841   -1.4903935061    3.0161081142
 H    0.6622885079    0.2182128394    2.7317789941
 H   -2.2264229488   -0.7443922634    2.3338418276