21

 O    0.0299793893    1.4129824667   -0.2029017110
 C    0.0274948899    0.0028836050   -0.0338471360
 C    0.6937903274   -0.4859436924    1.2809858442
 C   -0.1565984175   -1.6693136641    1.7988006947
 C   -1.1610117947   -1.3296279679    2.9455791377
 C   -2.3105049403   -1.2225723535    1.9206394728
 C   -2.3388652792    0.1069017605    1.1117476180
 C   -1.4092793818   -0.5123154994    0.0180317271
 C   -1.3753105677   -1.8355395407    0.8199635083
 H    0.9446161696    1.7078574878   -0.2468339100
 H    0.5300626256   -0.4778947754   -0.8898529214
 H    1.7372512238   -0.7716450188    1.1138687473
 H    0.7001092843    0.3406092899    1.9998912950
 H    0.4421927610   -2.5630424783    1.9812284018
 H   -1.3017154496   -2.1806165491    3.6185980830
 H   -0.9423899656   -0.4432772027    3.5516224435
 H   -3.2781626918   -1.6406308301    2.2010007424
 H   -3.3310611941    0.3467660875    0.7234182870
 H   -1.9511503130    0.9933215587    1.6203743827
 H   -1.8670154898   -0.5463689452   -0.9723492030
 H   -1.5355854057   -2.7953796386    0.3296539159