18

 C   -0.1239817194    1.5472783872   -0.0133567762
 C   -0.0013304674    0.0338579737   -0.0070252713
 C   -1.2200960386   -0.8012213586    0.4650675210
 O   -0.3965993331   -1.5574051353    1.3760036646
 C    0.7468448162   -0.7045226609    1.1464711052
 C    1.9282525525   -1.4417053413    0.5386838435
 C    1.6959365354   -1.3679515763   -0.9772575269
 O    2.3149578538   -1.9411733476   -1.8432338668
 N    0.6548364245   -0.4935136809   -1.1834341621
 H    0.8567161662    2.0152985128   -0.1414246643
 H   -0.7668375136    1.8848314621   -0.8345858684
 H   -0.5633764995    1.9064844142    0.9217907660
 H   -1.9872516401   -0.2208190005    0.9946690196
 H   -1.6944212116   -1.4354244819   -0.2916685341
 H    0.9865999138   -0.1050572305    2.0311248657
 H    2.8899944419   -0.9755458756    0.7762593602
 H    1.9675742175   -2.4826254189    0.8669874581
 H    0.3278940615   -0.3205517918   -2.1219259839