23

 C   -1.6796222843    1.9769994916    2.5843568398
 C   -1.2765210825    1.1254245252    1.3908562381
 C   -0.2433972696    1.7077773032    0.4456199861
 C    0.1440163901    0.6043900837    1.3961062082
 C   -2.3531728760    0.1771172104    0.9087834802
 C   -3.7781822869    0.6164431788    0.6584131590
 C   -2.9537972916    0.0838722591   -0.4846707236
 C   -2.6280592680    1.0109639738   -1.6233038872
 O   -1.4858597120    0.5141729765   -2.3184542230
 H   -0.8352037599    2.5738950438    2.9440187339
 H   -2.4919201209    2.6681572749    2.3333156206
 H   -2.0254280957    1.3516713320    3.4159766212
 H   -0.2942648230    1.4475214132   -0.6038935223
 H    0.1127052529    2.7119823237    0.6550687202
 H    0.7707513837    0.8420364109    2.2496095833
 H    0.3241674534   -0.3765630946    0.9681474459
 H   -2.2882426885   -0.7947105166    1.3952159661
 H   -4.5930653769    0.0204619976    1.0542515787
 H   -3.9760744046    1.6843035090    0.6533196759
 H   -3.1760773254   -0.9267600333   -0.8170618344
 H   -3.4953191374    1.0571594249   -2.3005701805
 H   -2.4516527639    2.0284800119   -1.2451918959
 H   -1.3611454228    1.0500236102   -3.1079119402