19

 C   -0.0217672366    1.5546974198    0.1842393911
 C   -0.0481722672    0.0329403953    0.0364620967
 O    0.6046213417   -0.6013198121    1.1232918498
 C   -1.4868037015   -0.5214612222   -0.0759518808
 C   -1.6212367070   -2.0708834037    0.0010187889
 C   -2.4251505673   -1.8050426223    1.2840824550
 O   -2.1468211764   -0.3841846727    1.2241746159
 C   -2.2461342152    0.0972616382   -1.1543627452
 C   -2.8633078295    0.5850699623   -2.0638848396
 H    1.0072413772    1.8860937695    0.3432770029
 H   -0.4221488636    2.0485255160   -0.7043574060
 H   -0.6243711890    1.8619044317    1.0457493277
 H    0.4999127391   -0.2706027288   -0.8631490336
 H    0.0555629040   -0.4136584889    1.8961881519
 H   -2.1595447406   -2.5355441678   -0.8236184877
 H   -0.6628558074   -2.5614020703    0.1659103739
 H   -3.5006344577   -2.0018665692    1.2081580222
 H   -2.0401984994   -2.2532949623    2.2058734337
 H   -3.4117650833    1.0226205475   -2.8615484169