17

 O    0.0887301388    1.3854202187    0.1139428438
 C    0.0321569277   -0.0072163746   -0.0059797929
 C   -1.3717274669   -0.5979334723    0.0348788760
 N   -2.0934799210   -0.1268848352   -1.1705205243
 C   -1.1700016913   -1.2752343727   -1.2810534574
 C    0.2301750881   -0.6696756909   -1.4379061532
 C    0.4282252609    0.3019144466   -2.6083372751
 C    1.6653963173    1.0634552252   -2.4524835436
 N    2.6502044289    1.6444571926   -2.2781859351
 H    1.0093082047    1.6645498505    0.0482461037
 H    0.6786919268   -0.5114871623    0.7244425105
 H   -1.9177295476   -0.9268939276    0.9100149659
 H   -3.0410874900   -0.4969669669   -1.1119214528
 H   -1.5109670835   -2.2470819349   -1.6146353997
 H    1.0219048911   -1.4216755659   -1.4185088710
 H    0.4595049796   -0.2373433885   -3.5616573201
 H   -0.4168623238    0.9952651683   -2.6380723947