14

 O   -0.0630305278    0.0091627619   -0.0407308885
 C    0.0117678410    1.1994058737   -0.0052939871
 O   -1.0754003250    2.0462489589    0.0062529428
 C   -0.4584907727    3.3391175334    0.0519458295
 C    0.7832235318    3.3652026531   -0.8803035030
 C    1.4778449915    4.3333402509    0.1055158974
 C    0.7593837121    3.3094705704    1.0149882355
 C    1.1877824620    2.1512021769    0.0376942764
 H   -1.2073584730    4.1275133931    0.0657443821
 H    0.7891705651    3.3769719482   -1.9702414182
 H    2.5690098520    4.3086449298    0.1185167113
 H    1.1068784485    5.3621603943    0.1310944101
 H    0.7379409260    3.2571788526    2.1035399374
 H    2.1933950984    1.7392336928    0.0382698444