18

 O   -0.1803317228    1.4423008344    0.2254184009
 C    0.0248697394    0.0314561534    0.0561662556
 C    0.9575709275   -0.5400710141    1.1005842061
 C    0.5095534168   -1.2545919655    2.1319585656
 C   -0.9654561483   -1.4894541391    2.2810662186
 C   -1.8294924400   -0.1847344919    2.3589403583
 N   -2.4420155800   -0.4182081684    1.0107933231
 C   -1.6971973444   -1.7309996604    0.9459741544
 C   -1.3477011796   -0.6315052408    0.0277710065
 H    0.6863204525    1.8572036740    0.2944641755
 H    0.4760148460   -0.1452790299   -0.9342987075
 H    2.0187764862   -0.3383870521    0.9722674753
 H    1.1890126460   -1.6395494362    2.8870620359
 H   -1.1994230606   -2.2142267124    3.0605062636
 H   -2.6159787423   -0.2452722823    3.1144327776
 H   -1.2893136755    0.7593189508    2.4462761328
 H   -2.1669959293   -2.6589116162    0.6347577365
 H   -1.7760837917   -0.6889142133   -0.9686234086