11

 O   -0.1263311336   -0.1264231588    0.0008446282
 C   -0.0704803885    1.0784841264    0.0053609834
 C    1.2399880919    1.8781496361   -0.0015302598
 C    2.4394292066    1.0606070963   -0.0153638282
 C    3.4364281112    0.3923976151   -0.0268575833
 C   -1.2627548131    1.9102612616    0.0181558150
 C   -2.2379591729    2.6155938211    0.0287359433
 H    1.2076273044    2.5509110897   -0.8697582329
 H    1.2218687875    2.5421730113    0.8738367773
 H    4.3145221160   -0.2046308472   -0.0370895078
 H   -3.1125147194    3.2202463286    0.0380726449