15

 O    0.1924836467    1.2737114390    0.1267438587
 C    0.1282980470   -0.0630363972    0.0287500176
 N    0.1412368557   -0.7567328208   -1.0925416760
 C   -0.0337974091   -2.0314251537   -0.6337727139
 C   -0.1779408530   -2.1270674509    0.7092200545
 C   -0.0134953581   -3.5472795545    1.1400157920
 C   -0.2139802276   -4.2050251973   -0.2736992533
 O    0.0629025015   -3.2096548313   -1.2992069989
 N   -0.0003662477   -0.8107481121    1.1601426881
 H    0.2541015624    1.6077759715   -0.7771388028
 H    0.9805163607   -3.7633111508    1.5593835990
 H   -0.7579617497   -3.9357617547    1.8435100441
 H    0.4433726519   -5.0566223615   -0.4554664920
 H   -1.2566838544   -4.5213844846   -0.3887418209
 H   -0.1921596064   -0.4298955411    2.0711059841