22

 C   -0.1767382236    1.4932017306   -0.0930636086
 C   -0.1112110274   -0.0323840629    0.0364688781
 C    0.7746028486   -0.5260605788    1.1995228678
 C    0.1140074658   -0.3063940689    2.5746483181
 C    1.0652682426   -0.4308518174    3.7695643365
 C    1.1439416286   -2.0218427066    1.0205703255
 O    0.0183148335   -2.8827865928    0.9916542911
 C    1.9897262000   -2.2209887475   -0.1762847434
 N    2.6311982748   -2.3686325668   -1.1264609935
 H    0.8202457556    1.9142766931   -0.2608712005
 H   -0.8063976472    1.7826700758   -0.9395711957
 H   -0.5929584276    1.9662677957    0.8014902536
 H   -1.1274027537   -0.4296984755    0.1620497568
 H    0.2730649643   -0.4404272850   -0.9070776202
 H    1.7218519933    0.0308311476    1.1671978590
 H   -0.3357683349    0.6916590556    2.5884893185
 H   -0.7116945316   -1.0200018761    2.6772748357
 H    1.8992200188    0.2751207353    3.6889782430
 H    0.5392297118   -0.2179199954    4.7049591100
 H    1.4887031769   -1.4362064445    3.8632801916
 H    1.7303333861   -2.3523673020    1.8835428181
 H   -0.4885032947   -2.6909722532    0.1945794384