18

 C   -0.0133998430    1.4627510229    0.0098370304
 N   -0.0485791275    0.0156445104    0.0064982801
 C   -0.0408765488   -0.7788687625   -1.1198181441
 C    0.0172469122   -2.0967520780   -0.7397528672
 C    0.0268348268   -3.3000815024   -1.6288652827
 C    0.0519859994   -2.1035723247    0.6983988826
 C    0.0130797403   -0.7814023161    1.1115145515
 C    0.1019363803   -3.2450658336    1.5298511324
 C    0.1462541374   -4.2353817295    2.2162894606
 H    1.0055108210    1.8448308812   -0.1229171554
 H   -0.6403083524    1.8509275362   -0.7970442212
 H   -0.4048985357    1.8341304139    0.9592890497
 H   -0.0796212484   -0.3356602021   -2.1028876157
 H    0.9244977638   -3.9084604546   -1.4707851033
 H   -0.8327232380   -3.9513241032   -1.4336103048
 H   -0.0026813034   -3.0112694609   -2.6833532734
 H    0.0249083420   -0.3623054639    2.1047795314
 H    0.1847119139   -5.1026287032    2.8265929091