17

 C    0.0773643153    1.3586487687    0.1707436242
 O   -0.0254724271   -0.0399936931    0.0370636631
 C    0.5887070103   -0.5593241111   -1.1409272137
 C    2.1159255774   -0.6623488598   -0.9925264954
 C   -0.0050456747   -1.8660584915   -1.4223822940
 C   -0.4652828790   -2.9497887849   -1.6712763888
 C   -1.0363605009   -4.2562804619   -1.9638134874
 H    1.1127246099    1.7005415896    0.3168190249
 H   -0.3373826483    1.8831752498   -0.7048878155
 H   -0.5041007284    1.6363117397    1.0533418013
 H    0.3624743705    0.1165909279   -1.9841782428
 H    2.5563705403   -1.0780990086   -1.9028829289
 H    2.5589106022    0.3220851456   -0.8171240116
 H    2.3623800163   -1.3166171590   -0.1526646266
 H   -0.2609749819   -5.0280185713   -2.0228034801
 H   -1.7447219359   -4.5575911175   -1.1842945211
 H   -1.5757591360   -4.2523124126   -2.9174313179