16

 C   -0.0041013770    1.4765621636    0.0955684455
 C   -0.0137058973    0.0221134851    0.0515445698
 C   -0.0259114944   -1.1802928216    0.0148001273
 C   -0.0129322433   -2.6343411528   -0.0276472422
 O   -1.3399656474   -3.1327293364   -0.1102377177
 C   -1.3928612008   -4.5349242504   -0.1545181404
 C   -2.8525064453   -4.9477398760   -0.2400178583
 O   -3.2176234824   -6.0914593477   -0.2935742743
 H    1.0213954441    1.8612074800    0.1172508072
 H   -0.5002933476    1.9041268585   -0.7822889222
 H   -0.5183061667    1.8515009354    0.9870104788
 H    0.5746214478   -2.9838190705   -0.8939904039
 H    0.4843314618   -3.0361918591    0.8718864978
 H   -0.8568037449   -4.9456176756   -1.0276564407
 H   -0.9458319563   -4.9980449310    0.7422178503
 H   -3.5574917702   -4.0879721415   -0.2484497871