17

 N    0.2431939254    1.2628351128   -0.2671445250
 C    0.0639325358   -0.0825046338   -0.1056919665
 N   -1.0352400694   -0.7011922425    0.1073698059
 C   -0.7101033778   -2.1049152363    0.0598220416
 C   -0.1374683779   -2.6766705181   -1.2378537018
 C   -0.2323166459   -1.9824916627   -2.5820569791
 O    1.0093045465   -1.9573194532   -3.2740610820
 C    0.7874932451   -2.1803990739   -0.1580865570
 O    1.2084543132   -0.8205245393   -0.2628593786
 H    1.1518959333    1.6105772589    0.0002948273
 H   -0.5332610358    1.8167181446    0.0606035244
 H   -1.2677855233   -2.7522268916    0.7260714580
 H   -0.1673185864   -3.7625675347   -1.2796191339
 H   -0.9227491613   -2.5350700337   -3.2263244366
 H   -0.6454496385   -0.9727361027   -2.4635377481
 H    1.6147223038   -1.4368052919   -2.7352221706
 H    1.5130489132   -2.8017087520    0.3503831519