20

 C    0.9269648208    1.4784340914   -0.2349091412
 C    0.1529844033    0.1693496332    0.0055663781
 C    0.3916364108   -0.8218769933   -1.1112698216
 C    1.1812922868   -1.8296868070   -0.7506731592
 C    1.5988368783   -1.7132071096    0.7084935091
 C    3.0091619871   -1.3207957372    0.8246140774
 N    4.1195410713   -1.0083519439    0.9099642348
 C    0.5886578503   -0.6482506625    1.2617338431
 C    1.0592988641    0.1458299543    2.4770158453
 H    2.0047477822    1.2995356886   -0.2946688083
 H    0.6131185841    1.9387367430   -1.1773930144
 H    0.7423642825    2.2011665691    0.5654119206
 H   -0.9122220756    0.4197496601    0.0888187384
 H   -0.0067892363   -0.6766994208   -2.1098845322
 H    1.5413099102   -2.6282805124   -1.3874402214
 H    1.4900586773   -2.6602568414    1.2503815869
 H   -0.2868316932   -1.2380160230    1.5564893287
 H    1.9657700250    0.7196606491    2.2681151849
 H    0.2816133084    0.8437583004    2.8035619563
 H    1.2779513929   -0.5213656880    3.3171531449