17

 C   -0.0907166924    1.4598957167    0.0957979209
 C    0.0068563286   -0.0657615158   -0.0052424940
 C    0.9179186730   -0.6427157211    1.0588128174
 O    0.3610347834   -0.4343841387    2.4195125404
 C    0.3243808546   -1.7691846561    2.6847953466
 O   -0.0758028312   -2.3260124967    3.6546335143
 C    0.9549974387   -2.1623969507    1.3357474456
 C    0.2108609616   -3.1783702359    0.5016960730
 O   -0.1429113270   -3.0167883710   -0.6366007463
 H    0.8890034340    1.9312770239   -0.0397590923
 H   -0.7606674752    1.8556437519   -0.6722113821
 H   -0.4769239076    1.7622796939    1.0732886168
 H   -0.9856677319   -0.5180511984    0.0845457787
 H    0.3940712569   -0.3696583265   -0.9830659950
 H    1.9108012160   -0.1850043357    1.0222321451
 H    1.9640372176   -2.5578616808    1.5060073240
 H    0.0221087408   -4.1305422591    1.0428687469