21

 C    0.3529897898    1.5287359580    0.4044163405
 C    0.0464375192    0.0685009604    0.0790426233
 C    0.6616456334   -0.3840453923   -1.2475187871
 O    2.0754692018   -0.3394355310   -1.2144407058
 O    0.5948400841   -0.8340199686    1.0591355843
 C   -0.1863683938   -1.0242562748    2.2060777074
 C    0.4580981857   -1.8279344131    3.3054250262
 C    0.2709103414   -0.3336672648    3.4677317197
 O    1.3707560978    0.5192415636    3.3983498763
 H    1.4244115168    1.7167206395    0.2911355575
 H   -0.1811321677    2.1875074275   -0.2882487065
 H    0.0523481716    1.7845704462    1.4227096214
 H   -1.0416455886   -0.0873293584    0.0304983694
 H    0.2992414463   -1.3964929890   -1.4806406025
 H    0.3414188213    0.2855903344   -2.0522992992
 H    2.3406791995   -0.9036931463   -0.4790481358
 H   -1.2486099526   -1.1557227633    2.0049799888
 H   -0.1583189336   -2.5149441140    3.8749693542
 H    1.4723229953   -2.1665912513    3.1201994051
 H   -0.4679814783    0.0281482612    4.1756979151
 H    1.7532236705    0.4009048862    2.5190152178