18

 C    0.0383767541    1.4143327637   -0.1086994038
 C    1.3140249932    0.6531400297   -0.0472141574
 C    1.9451347330    0.4015486674    1.3368013723
 O    1.6393309671    1.4534450684    2.2590511387
 C    0.4607378770    1.1321811429    2.9955474341
 C    0.0598394771   -0.2731495410    2.5951766693
 C    1.2261845381   -0.8699265757    1.8539998048
 C   -0.0995114909   -0.7858844169    1.1541935300
 N    0.0273058991   -0.0567082129   -0.1061533149
 H   -0.2790967071    1.9578300077    0.7705726021
 H   -0.2771320936    1.8576438113   -1.0500289195
 H    1.9546061877    0.5739362658   -0.9227064773
 H    3.0319465537    0.3115457956    1.2829538054
 H    0.6973056587    1.1470972854    4.0689532013
 H   -0.3132457722    1.8906771914    2.8217159006
 H   -0.4740354329   -0.8577075259    3.3375091337
 H    1.7616726797   -1.7712528215    2.1243924555
 H   -0.7405149019   -1.6567661554    1.0688260651