19

 O    0.3967919681    0.7722566956    0.4324204072
 C   -0.1802971993    0.0788982460   -0.6790470923
 C   -1.5176998146   -0.5027375124   -0.2844764748
 O   -2.3715206205    0.4626756964    0.2601203604
 C   -2.1808666796   -1.5568303177   -1.1104981870
 C   -1.6562592139   -1.9178916639    0.2666366802
 C   -0.5142621767   -2.8682881744    0.4357082839
 C   -0.4522631551   -4.1620798650   -0.2622264389
 O    0.3616806435   -3.0629547524   -0.6804236421
 H    0.7268193870    0.1090103673    1.0476902885
 H   -0.3353486725    0.8438144541   -1.4470462619
 H    0.4898218402   -0.6886646712   -1.0774104218
 H   -1.8072601810    1.0049984832    0.8282980157
 H   -3.2538919879   -1.4785427207   -1.2415217482
 H   -1.6303589906   -1.9417935562   -1.9628273280
 H   -2.4071077741   -1.9970455983    1.0483391587
 H    0.0111721700   -2.8027680672    1.3916859687
 H    0.0880022546   -4.9960797770    0.1825731144
 H   -1.2543551476   -4.4301127561   -0.9473062227