18

 C   -0.1474058627    1.3517870799   -0.0464285107
 N    0.0367729641   -0.0919787317    0.0264382561
 C    1.4183045087   -0.5593528298   -0.1860487969
 C    0.8196464223   -0.5667026143    1.1814119248
 C    0.6810840670   -2.0712277728    1.4542738381
 C    2.0662157390   -2.5908003776    0.9014963223
 C    1.5307529010   -2.0608008850   -0.4864862044
 C    0.1808234445   -2.5658268681    0.0761990053
 O   -0.6874035747   -3.2856237472   -0.3077795620
 H    0.7134748445    1.9280365431    0.3335929046
 H   -0.3185221375    1.6391076604   -1.0882785969
 H   -1.0301460044    1.6303617153    0.5370535157
 H    2.1809449810    0.1462697662   -0.4980843219
 H    1.1049260032    0.1330588132    1.9597687321
 H    0.2520775589   -2.4110493564    2.3939718286
 H    2.9532728402   -2.0882772789    1.2925519032
 H    2.1784542705   -3.6760299823    0.9448075367
 H    1.9315346645   -2.3904402539   -1.4421374848