20

 C    0.3397939412    1.4314812610    0.3397622181
 C   -0.1728055238    0.0372585476   -0.0211960115
 O   -1.5781280694    0.0145866858   -0.2238094706
 C    0.5524482583   -0.5366779031   -1.2426417732
 N    1.9295070142   -1.0305206454   -0.9994221523
 C    0.8872408713   -1.9955064232   -1.3738771767
 C    0.5007578012   -3.0511168518   -0.3671134801
 C    0.2856845343    0.1786937006   -2.4675312017
 C    0.0418695156    0.8049550235   -3.4670541116
 H    1.4091621116    1.3978743455    0.5677374348
 H    0.1880121952    2.1289885577   -0.4913607632
 H   -0.1982651133    1.8101251966    1.2126169633
 H    0.0074110451   -0.6349826295    0.8206642463
 H   -1.7657255594    0.5630076301   -0.9953402109
 H    2.5239956730   -0.8085659263   -1.7938635759
 H    0.9048013593   -2.3490929052   -2.4036344458
 H    0.6069907885   -2.6902942564    0.6572946371
 H   -0.5341231796   -3.3722706169   -0.5210229603
 H    1.1498934950   -3.9262480188   -0.4780317111
 H   -0.1617295783    1.3439995882   -4.3593614246