21

 C   -0.0579305585    1.4278748644   -0.0788925139
 C   -0.0592294794   -0.0730566304    0.0871835728
 O   -0.0870312092   -0.6657273103    1.1346422894
 O   -0.0244158378   -0.6850557709   -1.1174225037
 C   -0.0219596083   -2.1213697115   -1.0930455148
 C    0.0194479726   -2.6259660217   -2.5391587852
 C   -1.2274889459   -2.1807149533   -3.3130143552
 C    1.3055368095   -2.1750795792   -3.2424560186
 O    0.0178589442   -4.0465089646   -2.3685107239
 H    0.8375212793    1.7451874382   -0.6207832776
 H   -0.9235577485    1.7413350469   -0.6693138057
 H   -0.0859960920    1.9006131893    0.9019448634
 H    0.8483502661   -2.4818029492   -0.5376716373
 H   -0.9202683454   -2.4856667539   -0.5869590680
 H   -1.2924331343   -1.0906709410   -3.3626391270
 H   -1.1997544521   -2.5659424236   -4.3387354859
 H   -2.1295828371   -2.5643219993   -2.8275516259
 H    2.1809203043   -2.5545831729   -2.7074023937
 H    1.3367206388   -2.5604502154   -4.2680257657
 H    1.3682194803   -1.0847536582   -3.2886897906
 H    0.0431963634   -4.4473961133   -3.2434127028