20

 C    0.0811484972    1.1065393198   -0.2637510936
 C   -0.4347556926   -0.3324434382   -0.3357144839
 C   -1.9481652073   -0.4195465164   -0.0984764879
 N   -2.4700314311   -1.7738245954   -0.1707697148
 C   -2.4590397654   -2.5782450912    0.9123665656
 O   -2.0651868270   -2.2797800190    2.0263004829
 N   -2.9721413597   -3.8864218602    0.6999727283
 C   -3.4568324989   -4.4824419552   -0.4344838192
 N   -3.5325188592   -3.9015606529   -1.5699178713
 H    1.1606747991    1.1497461611   -0.4357638877
 H   -0.4003547215    1.7418084937   -1.0161814355
 H   -0.1168298983    1.5495107524    0.7184779981
 H   -0.1984321714   -0.7693666926   -1.3140032517
 H    0.0649923097   -0.9512619317    0.4174130287
 H   -2.1880009209   -0.0193484903    0.8912348969
 H   -2.4822128755    0.1847142571   -0.8403826190
 H   -2.7988331537   -2.1751798635   -1.0452784855
 H   -2.9442799549   -4.4315723191    1.5469807239
 H   -3.7690772073   -5.5154062361   -0.2462542896
 H   -3.9201548512   -4.5244246023   -2.2718358846