23

 C   -0.2364452461    1.2437207221   -0.4149696016
 C    1.1460864142    1.3528285272    0.1774688466
 C    0.4921568581   -0.0020868407    0.0336032574
 C    0.0244368059   -0.7262173681    1.2584751893
 C   -0.7112069516   -2.0501429584    1.2866468917
 C   -0.6519217833   -2.9861259044    0.0859934929
 C    0.8528183008   -3.2162931318   -0.2187112308
 C    1.6281110696   -2.8068258210    1.0624383051
 C    0.6802675135   -1.9407509653    1.8825895644
 H   -1.0740384474    1.5808238947    0.1872123739
 H   -0.3589191187    1.4174768519   -1.4785186907
 H    1.9724824278    1.6014598851   -0.4794787534
 H    1.2379345265    1.7632878373    1.1779241877
 H    0.8838976291   -0.6171979733   -0.7672260216
 H   -0.3510553632   -0.0294130165    2.0072600101
 H   -1.5874588823   -2.1169563669    1.9237010157
 H   -1.1352811303   -3.9312932871    0.3582867212
 H   -1.1891030641   -2.5996907790   -0.7873811778
 H    1.0528615372   -4.2554708552   -0.4950020608
 H    1.1706380139   -2.6117278089   -1.0718836546
 H    1.8863519376   -3.6936845400    1.6522798805
 H    2.5717959931   -2.3039063024    0.8232492608
 H    0.8273462594   -1.9271454492    2.9579041041