16

 O    0.1217985411    1.4304083258    0.1147658095
 C    0.0588103698    0.0145435168    0.1810682877
 C   -1.3593366507   -0.5269799518   -0.0632484254
 C   -1.4154326182   -2.0202548763   -0.0068467947
 C   -1.9936357679   -2.8264405494    0.9407486031
 N   -1.7341482586   -4.1190378765    0.5375115348
 C   -1.0199122803   -4.0420829213   -0.6194206087
 N   -0.8087037230   -2.7973842534   -0.9760147162
 H   -0.0667800499    1.6877997853   -0.7932805074
 H    0.7541786452   -0.4599089325   -0.5256766207
 H    0.3862045629   -0.2528867600    1.1912902851
 H   -2.0393662595   -0.0904631631    0.6755197207
 H   -1.6953214839   -0.1891385402   -1.0529433265
 H   -2.5524102078   -2.6094469333    1.8359423246
 H   -2.0290257010   -4.9590983833    1.0056555148
 H   -0.6883281580   -4.9212038068   -1.1518358506