19

 C   -0.2325730136    1.5646097983    0.2498597541
 C   -0.1165280383    0.0518720923    0.2440487892
 C    1.0630675051   -0.6106921033   -0.5259669402
 O    1.9961861073   -0.0783585095    0.4960071330
 C    0.8504130216   -0.6348169888    1.2519394468
 C    0.9412790358   -1.8954792415    0.3456596292
 C   -0.1806952144   -2.9229827619    0.2014081836
 C    0.1086800575   -3.8887073810   -0.9296835135
 O   -0.6326171984   -4.1080172537   -1.8518206044
 H    0.7494557852    2.0249520517    0.3721274189
 H   -0.6737237213    1.9225009830   -0.6865622797
 H   -0.8814639819    1.9006228843    1.0658731626
 H   -1.0901824269   -0.4290966092    0.1214048724
 H    1.3555397014   -0.5073656495   -1.5719525102
 H    0.8875992686   -0.5660791140    2.3406140196
 H    1.9147587701   -2.3813100733    0.4578647963
 H   -0.2267830155   -3.5124885339    1.1290846843
 H   -1.1643802095   -2.4823570352    0.0310293907
 H    1.0965857570   -4.4009490851   -0.8538336028