16

 O    0.3627436809    0.1553897830   -0.6825574885
 C    0.2458026496    1.2806867471   -0.2724096180
 N    1.2077222733    1.9487378444    0.4806640183
 C    2.6193882064    1.9456688895    0.2882902222
 C    2.9953604739    2.0753463065   -1.1966933534
 C    2.1542555193    3.3910216597   -1.2892485038
 C    1.7800813904    3.2479960677    0.1952660877
 C    1.6884384527    4.3215560999    1.2048540771
 O    1.8786721314    5.4870671451    0.9572120913
 H   -0.6728029447    1.8869955953   -0.3870846667
 H    3.2551985873    1.6192151462    1.1034452747
 H    4.0619111977    2.2537908656   -1.3398553956
 H    2.6808738000    1.2336940534   -1.8164472403
 H    2.7700855321    4.2751209368   -1.4562843920
 H    1.3151788624    3.4060164683   -1.9885623962
 H    1.4444145572    3.9593201715    2.2269137631