23

 C   -0.8570388641    1.4278304315    0.7323776748
 C   -0.3133529147    0.0505265659    0.3228151195
 C    0.3074994266    0.1123365406   -1.0748589089
 O   -0.7119773760    0.4581181669   -2.0013116113
 C    0.6989658363   -0.4645975073    1.3445646780
 C    0.2397962474   -0.6744238945    2.8028711512
 O    0.8074652793   -1.9967003270    2.8434781703
 C    1.1072390480   -1.9702758184    1.4252177779
 C    0.3021536276   -3.0176887302    0.6740639829
 H   -0.0415585919    2.1547475842    0.8324678472
 H   -1.5513962245    1.8011951365   -0.0230477154
 H   -1.3828070233    1.3816136267    1.6909785968
 H   -1.1588856142   -0.6470197808    0.2669440944
 H    1.1189196516    0.8600857136   -1.0778920932
 H    0.7577009357   -0.8585070518   -1.3327796872
 H   -0.3121395954    0.5510086904   -2.8705377511
 H    1.5935138880    0.1673294200    1.3078233475
 H    0.6753207933   -0.0130246356    3.5605874902
 H   -0.8510944884   -0.6950996957    2.9398280818
 H    2.1789133940   -2.1446404799    1.2602362418
 H   -0.7741512445   -2.8648109101    0.7932512945
 H    0.5395668536   -3.0153969533   -0.3948336743
 H    0.5465346355   -4.0076460516    1.0720958726