21

 C   -0.7469507943    1.2897288539   -0.1360241698
 C   -0.0014106733   -0.0438390990   -0.1371412718
 C    1.3626096547   -0.0243421960   -0.8516624317
 C    2.0910607926   -1.2397775758   -0.2569924123
 O    1.4006784718   -1.5914558492    0.9511168352
 C    0.4025788588   -0.6338723615    1.2398886171
 C    0.9451819174    0.4442239387    2.1977739559
 C    0.0173017391    0.9088979187    3.3024858678
 O    2.0641987161    0.8840651981    2.0625081486
 H   -0.1485427574    2.0858990284    0.3190980972
 H   -0.9769056017    1.5975689540   -1.1608017662
 H   -1.6974389318    1.2232493380    0.4045450096
 H   -0.6353518455   -0.8022581591   -0.6127097500
 H    1.2608736694   -0.0852938878   -1.9382939512
 H    1.8976085096    0.8976284626   -0.6089723429
 H    2.0585031422   -2.1105732242   -0.9237383500
 H    3.1379276409   -1.0188215580   -0.0260163284
 H   -0.4341385676   -1.1565529444    1.7184365442
 H   -0.1365960477    0.0895463175    4.0153544369
 H    0.4487493268    1.7653500478    3.8220313471
 H   -0.9694823901    1.1675614273    2.9028677147