18

 C   -0.1646570927    1.5472645588   -0.2165306898
 C    0.0300927713    0.0388672429   -0.0891739893
 O   -1.1979812827   -0.6005836985    0.3026866104
 C    0.4646918149   -0.6132891875   -1.3995107191
 C    0.6755337823   -2.1286164871   -1.2816806224
 O   -0.5202410391   -2.8624915654   -1.1367697496
 C    1.3851370601   -2.6895832362   -2.5078580575
 O    2.3025814000   -2.1473023294   -3.0676307582
 H    0.7714341718    2.0377482021   -0.5012022876
 H   -0.9221010333    1.7722404498   -0.9734385993
 H   -0.4920996395    1.9809574121    0.7352462334
 H    0.7996839626   -0.1647217239    0.6731351532
 H   -1.4486391508   -0.2800569675    1.1745206756
 H   -0.2930037550   -0.4215021234   -2.1690095777
 H    1.4036709524   -0.1635853238   -1.7367438626
 H    1.3629191370   -2.3163161772   -0.4316636126
 H   -1.0569202627   -2.3753197515   -0.4956368059
 H    0.9791133636   -3.6703924742   -2.8386907610