19

 O    0.0254193149    1.3943568996   -0.1900670199
 C    0.0161553747    0.0225191728    0.1759946022
 C   -1.3743448834   -0.6055481812    0.0189157216
 C   -2.0653121400   -0.2957911202   -1.3293370861
 O   -1.0475193168   -0.1819682815   -2.3483876488
 C   -2.9456954986   -1.5055514646   -1.5481800971
 C   -2.6138430308   -2.5094482400   -0.7369987738
 C   -1.4257252764   -2.1558606708    0.1328323240
 O   -0.2522622525   -2.8271981453   -0.3256546822
 H   -0.0848045605    1.4007259459   -1.1485314082
 H    0.7519999873   -0.5484685084   -0.4003913469
 H    0.3242141220   -0.0255230613    1.2254958358
 H   -2.0309880919   -0.1995856174    0.7964536092
 H   -2.6321392409    0.6424059491   -1.2854748510
 H   -1.4826584338   -0.0831232164   -3.2016039642
 H   -3.7187273095   -1.5347626231   -2.3098811923
 H   -3.0567990858   -3.4992767556   -0.7313870427
 H   -1.5389700457   -2.4797683688    1.1716573883
 H   -0.1552550724   -2.6078364629   -1.2604949878