19

 C    0.2558957542    1.4988326877    0.0020094183
 C    0.1067421544   -0.0026370681    0.0319988011
 O    0.6353016865   -0.5836043041   -1.1494436533
 C    1.0659716624   -1.8730045846   -0.7877501883
 C    2.4286207615   -1.9510574304   -0.0985256184
 O    3.3021326030   -0.8785276107   -0.0852666466
 C    1.1533890454   -1.9045585062    0.7195717312
 C    0.6639139415   -2.9756494564    1.6492112202
 O    0.8586252303   -0.5669188982    1.1094108260
 H   -0.0989528240    1.9299727621    0.9412418999
 H    1.3047190618    1.7664383258   -0.1490697541
 H   -0.3335108986    1.9111926104   -0.8205775664
 H   -0.9493278135   -0.3040465663    0.1479936808
 H    0.6763044975   -2.6854425088   -1.3934914922
 H    2.9425501219   -2.9069186271   -0.1661176543
 H    2.8792632122   -0.1976386609    0.4560983583
 H    0.9249084461   -3.9641792793    1.2596258622
 H    1.1216380732   -2.8706068400    2.6383617015
 H   -0.4240635257   -2.9294850247    1.7666131140