18

 O    0.0249172441   -0.0169937868   -0.0682945841
 C   -0.0121739286    1.1960128954    0.0145386670
 C   -1.3617924677    1.9431613926    0.0323611903
 O   -1.7198797595    2.5357391369   -1.2026115114
 C   -1.3653902563    3.9003491765   -1.4057584409
 C   -0.0028431300    4.0914644375   -2.0380426252
 C    1.1557380171    3.8703433890   -1.4186316593
 C    1.2593898943    3.3846426321    0.0093935912
 N    1.1353142304    1.9357273487    0.1445724011
 H   -2.1056076139    1.1688234912    0.2308704238
 H   -1.3975665108    2.6805336241    0.8488291539
 H   -2.1359998348    4.3016374957   -2.0702114515
 H   -1.4389971330    4.4507600670   -0.4550571005
 H    0.0063760138    4.3881026707   -3.0837324850
 H    2.0880098645    3.9833096373   -1.9670326933
 H    2.2222010282    3.6691638001    0.4422547490
 H    0.4916803878    3.8595958632    0.6281583904
 H    1.9727322744    1.3831354488    0.0200628145