18

 C   -0.3696555288    1.4504982933    0.0776646223
 C    0.0666246210   -0.0110833196    0.0166191501
 C    0.9681633683   -0.3752524608   -1.1887503691
 C    1.6630592114   -1.6824068620   -0.7781077118
 C    1.8453443128   -1.5654550021    0.7377455976
 O    2.6103593263   -2.2044691212    1.4147853660
 C    0.8821271024   -0.4951974390    1.2006724131
 N    0.7150092450    0.0108255270    2.3636421155
 O    1.5314043616   -0.5229388812    3.3395700106
 H    0.5005544568    2.1124326534    0.1360570601
 H   -0.9442696878    1.7179313532   -0.8148555872
 H   -0.9894840213    1.6381004260    0.9575899618
 H   -0.8334854316   -0.6432937168   -0.0412512613
 H    0.3990633073   -0.4604293416   -2.1176083843
 H    1.7148473524    0.4151878133   -1.3323225344
 H    1.0153109973   -2.5492684093   -0.9678333204
 H    2.6176601094   -1.8787275433   -1.2705461999
 H    1.2750677878   -0.0169008892    4.1195799816