19

 C    0.0782501210    1.4814035182    0.0953897533
 C    0.0571996980    0.0270679022    0.0294616762
 C    0.0497271960   -1.1748170866   -0.0291044026
 C    0.0107585815   -2.6413322545   -0.0866276222
 C   -1.4380239714   -3.1722324941    0.0546223287
 C    0.6488651004   -3.1505782936   -1.3068514141
 C    1.1601251055   -3.5935864754   -2.3015954536
 C    1.7753509235   -4.1011189072   -3.5211449429
 O    2.5673371549   -5.2446305505   -3.2192097780
 H    0.6608997608    1.8331040037    0.9539820009
 H    0.5256077030    1.9122928078   -0.8071295897
 H   -0.9333516610    1.8910876810    0.1913651120
 H    0.5864427035   -3.0279206997    0.7675537007
 H   -2.0535969243   -2.8176688945   -0.7752124555
 H   -1.4380090409   -4.2651462499    0.0494192596
 H   -1.8756633474   -2.8173885907    0.9912000317
 H    0.9845248091   -4.3467072987   -4.2489487574
 H    2.3857804453   -3.3023087093   -3.9734065339
 H    2.9603624025   -5.5455568281   -4.0448448034