21

 C   -0.0164746690    1.5870300844    0.2160449626
 C   -0.0199359690    0.0718643746   -0.0042604932
 C   -1.4255067209   -0.5359943740    0.0745378712
 C   -1.4298023484   -2.0484308526   -0.1229551865
 C   -0.9813360646   -2.8836277726    1.1097923072
 N   -2.4059812052   -3.1118832619    1.4455649361
 C   -2.8147857798   -2.7586941307    0.0719565975
 C   -4.0391476745   -1.9625823423   -0.0364670998
 N   -5.0024319342   -1.3330664713   -0.1456161005
 H    0.9959557800    1.9969184491    0.1493512517
 H   -0.6335249404    2.0965435896   -0.5320008405
 H   -0.4166919208    1.8433582085    1.2029484441
 H    0.4188911369   -0.1586124212   -0.9843101052
 H    0.6310753763   -0.4064336771    0.7391971816
 H   -1.8818775800   -0.2968352909    1.0434117744
 H   -2.0654511929   -0.0721262558   -0.6869344719
 H   -0.9394844319   -2.3123161111   -1.0628199468
 H   -0.4272145945   -3.7890218623    0.8272190592
 H   -0.4215176839   -2.3557120897    1.8886298736
 H   -2.6599218829   -4.0454064082    1.7485722729
 H   -2.9120070202   -3.6162707645   -0.6096520277