18

 O   -0.1099540732    1.4333653079   -0.0031760793
 C    0.0412723470    0.0243340045   -0.0356145049
 C   -1.3498674238   -0.5882200094    0.0998636091
 C   -1.3486632238   -2.0859033275    0.0595004012
 N   -0.7150077371   -2.9811330927    1.0935116020
 C   -1.3070768240   -3.9551229525    0.1210156404
 C   -2.5578256151   -3.0623988388   -0.1046788129
 O   -2.4881603343   -3.1037596970   -1.5589752565
 C   -1.0918898653   -3.0690172988   -1.1471742283
 H    0.7620895644    1.8334797274   -0.0670859323
 H    0.5026146013   -0.3081589761   -0.9800067105
 H    0.6848745702   -0.3268898850    0.7870359473
 H   -1.7965328173   -0.2482539538    1.0409969783
 H   -1.9827546236   -0.2204516485   -0.7161249456
 H    0.3040031333   -2.9694741363    0.9997485708
 H   -1.2453961188   -5.0377217966    0.2295245785
 H   -3.5308252419   -3.0670727729    0.3842265935
 H   -0.3151092481   -3.0868367137   -1.9139799307