16

 C   -0.0081603611    1.5814738030   -0.2437234930
 C   -0.0285475811    0.0889594018    0.0032479878
 C    1.2069299888   -0.7368926124   -0.1180903462
 N    0.5741300359   -0.5335589795    1.1847239056
 C    1.2733295243    0.2808405715    2.1629138676
 C    2.0060752448   -0.6167443477    3.1499959617
 O    2.9878746068   -0.2865913614    3.7614111739
 H    0.9708594397    2.0245882964   -0.0463327375
 H   -0.2597373774    1.7864565980   -1.2894366138
 H   -0.7480255028    2.0962234231    0.3793139372
 H   -0.9706837714   -0.3849495240   -0.2701269085
 H    1.1729704082   -1.7485117956   -0.5135564174
 H    2.1363650410   -0.2034089089   -0.3165722029
 H    1.9941022770    1.0068127437    1.7591931793
 H    0.5310829413    0.8471392733    2.7452730448
 H    1.5381094261   -1.6186334411    3.2717509714