16

 O   -0.0728396075    1.4629089085    0.0466782142
 C    1.3773745832    1.4076082714   -0.0199666455
 C    1.8167488077    0.7159652183    1.2889692188
 C    2.8395753236   -0.3754763152    0.9063155503
 C    1.7937429983   -1.4293067908    0.9137018373
 C    0.6972278958   -0.4121222768    1.2968815274
 C   -0.0069178467    0.0127234285   -0.0101854219
 C    1.3046024661    0.0896668552   -0.8462425572
 N    2.2958515694   -0.8907358464   -0.3734934029
 H    1.8470820922    2.3341567747   -0.3482376904
 H    1.9655297956    1.3214998636    2.1789191471
 H    3.9064040003   -0.4179420207    1.0921109296
 H    1.8456651254   -2.4944445197    1.1066587812
 H    0.0991018691   -0.5592041286    2.1921083244
 H   -0.9321260820   -0.4663210669   -0.3285959818
 H    1.2252571695    0.1608255548   -1.9279368406