17

 C    0.0860167204    1.1804639184    0.3639167188
 O    0.0010832326   -0.1188619286   -0.1863261813
 C   -1.2759809513   -0.6750767645   -0.1094041029
 C   -1.4175006100   -2.1024675814   -0.6186488949
 C   -2.3858002317   -2.4387323593    0.4700754241
 C   -0.9723913576   -3.0512696499    0.5032464970
 C   -0.6819922009   -2.1912535480    1.6967323893
 O   -0.0392456666   -2.3293120630    2.6968718833
 C   -1.7935971268   -1.2083283169    1.2665071061
 H    1.1081488681    1.5310050149    0.2074325870
 H   -0.6097670447    1.8746693680   -0.1322929543
 H   -0.1273316373    1.1825193156    1.4421884353
 H   -2.0276204600   -0.0198892835   -0.5761573121
 H   -1.4091417390   -2.4452318219   -1.6452281424
 H   -3.3423578905   -2.9345078319    0.4967394437
 H   -0.6788032746   -4.0713343761    0.2987300349
 H   -2.3072338202   -0.5813055617    1.9893046985