23

 C   -0.0105040737    1.4702345580    0.0335807599
 C    0.0123618692   -0.0520590122   -0.0053045445
 C    0.2106381038   -0.6450838496   -1.4501851954
 C   -1.1134775931   -1.3973907007   -1.3123171811
 C   -1.2587856220   -2.1842964710   -0.0246366046
 C   -0.1875735909   -2.9144019238    0.7707585283
 C    1.1438430487   -2.1523676237    0.9050645419
 C    0.9496565665   -0.6367333740    1.0632189453
 C   -1.3997834725   -0.6939821856    0.0182009876
 H    0.9766141460    1.8858551838   -0.2000524850
 H   -0.7266084176    1.8740226487   -0.6904274830
 H   -0.2995528637    1.8344168087    1.0269312481
 H    0.1348546390    0.1475965992   -2.2001332301
 H    1.1155624405   -1.2228329919   -1.6591567536
 H   -1.8007468308   -1.5771199163   -2.1316499117
 H   -2.2198306380   -2.6959435908    0.0009669353
 H   -0.6009003278   -3.0889802018    1.7740421484
 H   -0.0042690717   -3.9078382582    0.3428457071
 H    1.7057439216   -2.5483012163    1.7581467962
 H    1.7656884533   -2.3431747846    0.0244481330
 H    1.9266835496   -0.1380113393    1.0187338942
 H    0.5304771589   -0.4108125794    2.0540697752
 H   -2.2979417955   -0.1852689591    0.3510349086