22

 C   -0.2498323875    1.5564604340    0.3220828749
 C    0.0529430529    0.0711769307    0.2035680653
 C    1.1611626649   -0.4748926252   -0.7422040740
 C    2.3997446394    0.4125181163   -0.6747047567
 O    2.7167563615    0.8167988288    0.6583176050
 C    2.0609294583    0.1509681259    1.7388100595
 C    0.8774574223   -0.6938798351    1.2785844341
 N    1.2703480728   -1.6274877169    0.1904057483
 C    2.4873454265   -2.4132037086    0.2762658715
 H    0.6470737843    2.1504584356    0.5120702885
 H   -0.7151343566    1.9282731411   -0.5975749077
 H   -0.9581195301    1.7402460667    1.1376092474
 H   -0.8634016098   -0.4926967633    0.0137980259
 H    0.9115514002   -0.7263766929   -1.7796136629
 H    3.2632376978   -0.1108808041   -1.1114934969
 H    2.2427387658    1.3265129386   -1.2626491964
 H    2.7879672773   -0.4777877803    2.2740033667
 H    1.7229538087    0.9252488344    2.4402186062
 H    0.3624272098   -1.1502608629    2.1319502693
 H    2.3775990616   -3.1514336296    1.0782251779
 H    2.6212807856   -2.9642538819   -0.6610564147
 H    3.4111544544   -1.8432360015    0.4670613790