14

 O   -0.2047939329    0.6455885553   -1.3618264960
 C   -0.0197652643    1.3162505487   -0.3822385326
 C   -1.1042925349    1.5407770300    0.6653078557
 N   -0.8817591400    2.7673131290    1.4157567421
 C    0.0965512677    3.6497551221    1.0661618474
 N    1.1256237400    3.4285110918    0.3363954109
 C    1.3120758678    2.0386693830   -0.0962453789
 C    2.0396176787    1.2725361957    0.9287967017
 N    2.5773605647    0.6595577690    1.7482992727
 H   -2.0659048392    1.5562234065    0.1418639765
 H   -1.1035846809    0.6687016787    1.3341574399
 H   -1.6354020983    3.1027320846    1.9931531699
 H   -0.0314082781    4.6492127000    1.4821271228
 H    1.8963614998    2.0184614655   -1.0206377322