20

 C   -0.0851173881    1.6797426646   -0.0023653791
 C    0.0275583924    0.1530935748   -0.0573834369
 C   -1.3513346052   -0.5446208212    0.0266310650
 C   -2.0412507965   -0.2849073067    1.2867480864
 N   -2.5696260393   -0.0653217452    2.2911252138
 C    0.7278356616   -0.3037837796   -1.3328306681
 C    2.2589244836   -0.1159270027   -1.4302326910
 C    2.2924515942   -1.6485151452   -1.5937240215
 O    0.8634889835   -1.7433965285   -1.4016574129
 H    0.9027713676    2.1490261123   -0.0403013720
 H   -0.6707644995    2.0624064148   -0.8464257252
 H   -0.5753243571    2.0025300488    0.9200082792
 H    0.6257748016   -0.1967771272    0.7932996307
 H   -1.9937063548   -0.2102114547   -0.7977890975
 H   -1.2127185098   -1.6240835384   -0.0900092187
 H    0.1780860282    0.0725624751   -2.2097290359
 H    2.6184925271    0.4663317437   -2.2790711389
 H    2.7232454494    0.2577129652   -0.5151025855
 H    2.5911646197   -2.0045473205   -2.5870471416
 H    2.8453032615   -2.2114041996   -0.8335091902