19

 O   -0.1365560171    1.4678131190    0.0825691364
 C   -0.0516526701    0.0788202406    0.0407839176
 C   -1.3000062622   -0.7799623229    0.0134829105
 C   -2.6553615957   -0.0827842439   -0.0396860827
 C   -3.2562523060   -0.0110635847   -1.4488952638
 O   -4.3207302838    0.9348599957   -1.3872474584
 C   -2.2199800081    0.3759878516   -2.4832611557
 C   -0.9318393980    0.0373382144   -2.3852741548
 C   -0.4015699971   -0.7003014052   -1.2132785793
 H   -0.5598946162    1.7679171862   -0.7319184524
 H    0.7909021862   -0.2666551578    0.6314020501
 H   -1.2605962297   -1.7050926698    0.5791963815
 H   -3.3644586475   -0.5783139159    0.6282959940
 H   -2.5539148914    0.9488686967    0.3160460092
 H   -3.6574749310   -1.0032832979   -1.7204176708
 H   -4.7999376474    0.9039211740   -2.2213183328
 H   -2.5839894346    0.9212577623   -3.3519167722
 H   -0.2300176565    0.3120849714   -3.1698889785
 H    0.2304344563   -1.5545421340   -1.4402545780