18

 C   -0.5867099825    1.0073129383    0.3545853188
 O   -0.2853572962   -0.3675827429    0.5442268208
 C    1.0080233310   -0.6135468171    1.0077643796
 O    1.2036129337   -0.0630725369    2.3223515675
 C    0.6133739115   -0.6012525198    3.4304609228
 N   -0.0844685314   -1.6268762593    3.6423507759
 C   -0.4688023521   -2.6077560085    2.6339842873
 C    0.6136541345   -2.9836198334    1.6462968186
 C    1.2847268598   -2.0913720471    0.9250795353
 H    0.1224373120    1.4741886362   -0.3444127317
 H   -1.5906905776    1.0521557850   -0.0712625023
 H   -0.5664781969    1.5612428085    1.2996120104
 H    1.7379922132   -0.0440216387    0.4164503143
 H    0.8496935070    0.0549773280    4.2690513528
 H   -0.7957580489   -3.5021837901    3.1722802628
 H   -1.3459107905   -2.2339486322    2.0881621361
 H    0.8445610191   -4.0406157617    1.5369476059
 H    2.0616074244   -2.3975257185    0.2324152950