18

 O   -0.0559015661   -0.0073978816   -0.2077631141
 C   -0.0234992845    1.1995449159   -0.0389264824
 N   -1.1597153086    1.9423238652    0.1904522488
 C   -1.1835301508    3.3796111512    0.0887664834
 C   -1.7487813678    4.0160453081   -1.1656341870
 C   -2.5160529464    4.0610938918    0.1410647765
 C    0.0268373579    4.0038165305    0.7573966498
 C    1.2803713896    3.2537314454    0.3880112506
 C    1.2429193616    1.9764358859    0.0030800657
 H   -2.0237557228    1.4293613964    0.0900710462
 H   -1.2985971361    4.9330043544   -1.5310690397
 H   -2.1144427739    3.3526211315   -1.9415447071
 H   -3.4013875655    3.4394191537    0.2327321996
 H   -2.5864698090    5.0050355532    0.6713053323
 H    0.1074958318    5.0566495112    0.4685426450
 H   -0.0905795871    3.9909572179    1.8520493648
 H    2.2294445780    3.7760904486    0.4771822635
 H    2.1335830498    1.4095247607   -0.2410525958