20

 C   -0.0302965998    1.4828844677    0.1979965603
 C    1.4972927618    1.6143611988   -0.1764030348
 C    1.3735181568    0.2120418162   -0.7961270170
 C    2.0240101746   -1.1613771672   -0.8639440458
 C    0.7473818710   -1.7801972979   -1.5572819528
 C    0.7986750720   -1.0897504374   -2.9315046770
 C    0.4141316389    0.1110978857   -2.0805082721
 N   -0.4433362030   -0.7989104814   -1.1930573916
 C    0.0968447007   -0.0690141914   -0.0091440076
 H   -0.3003110120    1.7844544605    1.2114429602
 H   -0.7024557724    1.9845335628   -0.5000296792
 H    1.7949464814    2.4385223056   -0.8303180010
 H    2.1280032895    1.6301687863    0.7176790072
 H    2.9016766678   -1.2788474733   -1.5055675648
 H    2.2494858204   -1.5684208805    0.1251260740
 H    0.5499145233   -2.8427392416   -1.4267600571
 H    1.7431883342   -1.0980578352   -3.4802546282
 H   -0.0322221804   -1.3773340492   -3.5792725800
 H   -0.0236805549    1.0229350243   -2.4852716330
 H    0.1156643201   -0.6398449728    0.9245516601