18

 C   -0.0222860500    1.5743607250   -0.0402553864
 C    0.0326952280    0.0843180804    0.0449145191
 C    0.0063832638   -0.9902573416   -1.0155179952
 C    1.2780650989   -1.6484968087   -0.4805140415
 C    0.9432463758   -0.9456058264    0.8591729828
 C   -0.3663344266   -1.6405795753    1.3316086836
 O   -0.8675795338   -1.1899550341    2.5722231705
 C   -1.0321668043   -0.9988875368    0.1181014575
 H    0.9283825572    1.9938270160   -0.3902947416
 H   -0.8013786122    1.8910086464   -0.7427125223
 H   -0.2462856801    2.0360973531    0.9291602044
 H   -0.3114749951   -0.8843855856   -2.0461618533
 H    1.3471927073   -2.7429486877   -0.4682665347
 H    2.1718591780   -1.2337115001   -0.9553502519
 H    1.7110738561   -0.6988522652    1.5907324815
 H   -0.3421111164   -2.7334471760    1.4051881399
 H   -1.0288792023   -0.2425394614    2.4933762000
 H   -2.0926887445   -0.9143429819   -0.0893717924