21

 O    0.0733027468    1.4164320884    0.2836874996
 C    0.0051134818    0.0237045036    0.0728319150
 C   -1.4330673573   -0.5150462861   -0.0508645645
 C   -2.0880515613   -0.0708449390   -1.3605720910
 O   -2.1323584045    1.3573210211   -1.3970569441
 C   -1.4562939980   -2.0388349658    0.0524113971
 C   -1.1298806751   -2.6806308810    1.4213044961
 O   -2.3672885608   -3.4206309765    1.4209141614
 C   -2.8185869216   -2.7525339884    0.2279627832
 H   -0.5309234905    1.8161280083   -0.3561307760
 H    0.5749547241   -0.2827599481   -0.8245446212
 H    0.4993018895   -0.4437851952    0.9328270399
 H   -2.0158461829   -0.0934916061    0.7798132476
 H   -1.5047670241   -0.4614081196   -2.2096834387
 H   -3.1052633928   -0.4829456762   -1.4376553989
 H   -2.4204990624    1.6364739098   -2.2708693809
 H   -0.8643585407   -2.4796084264   -0.7567467179
 H   -0.2565968834   -3.3412049701    1.4651632749
 H   -1.0793690577   -1.9672366420    2.2557313096
 H   -3.6620782595   -2.0769294053    0.4317427556
 H   -3.1142283396   -3.4618210953   -0.5540521167