25

 C   -0.1045383444    1.5757704783    0.0219259087
 C   -0.0122200093    0.0421581888    0.0098346610
 C    0.6431858515   -0.4808514691   -1.2782362876
 C    0.9986564178   -1.9724019326   -1.1779290138
 C    1.4374554857   -2.5500348651   -2.5274636469
 C    2.0227551522   -2.2132143858   -0.0394178080
 C    3.4841547884   -1.8818856108   -0.4069177700
 C    1.6133812826   -1.4590047347    1.2034927442
 C    0.7169851193   -0.4736276120    1.2267689714
 H    0.8937465394    2.0269223596   -0.0000717887
 H   -0.6600525665    1.9423576878   -0.8478270358
 H   -0.6139489817    1.9361955626    0.9220646734
 H   -1.0439000893   -0.3444375999    0.0478684324
 H   -0.0256924944   -0.3095074699   -2.1305099131
 H    1.5530401614    0.1010499587   -1.4805736354
 H    0.0820963414   -2.5002091372   -0.8769179276
 H    2.2904775235   -2.0050215537   -2.9452274311
 H    1.7259981886   -3.6034220130   -2.4383146898
 H    0.6217026795   -2.4889508978   -3.2556778046
 H    1.9977517274   -3.2868469190    0.2001744734
 H    3.5896234183   -0.8429396814   -0.7354816005
 H    4.1340967908   -2.0144038347    0.4643409938
 H    3.8596965192   -2.5329998346   -1.2015382525
 H    2.1089441210   -1.7528441389    2.1274329454
 H    0.4774201876    0.0096016844    2.1728574717