13

 N   -0.0669731473    1.2368706408    0.0076225769
 C   -0.0276911291   -0.0153324276    0.0007296960
 C   -1.2584197204   -0.9527280982    0.0026323794
 C   -0.5527414530   -2.2615839084   -0.0083006127
 C    0.7810025954   -2.0805079046   -0.0148325825
 O    1.1661239757   -0.7618777600   -0.0099646325
 C    1.3293403676   -3.3789844481   -0.0248640284
 N    0.3563945760   -4.2737785514   -0.0240499691
 O   -0.8557503123   -3.5588684202   -0.0135292886
 H    0.8700243524    1.6419281495    0.0045205329
 H   -1.8718343053   -0.7690439034    0.8901942452
 H   -1.8817396487   -0.7596317851   -0.8759854873
 H    2.3532848389   -3.7199249332   -0.0324373593