15

 C   -0.0161846896    1.4618643433   -0.1140353395
 C    0.1237698004   -0.0292110858    0.0571264716
 O    0.5327916587   -0.5911207274    1.0390732831
 O   -0.2841483265   -0.6651094702   -1.0740507677
 C   -0.2067713008   -2.1160632649   -1.0590523491
 C   -1.5501840590   -2.6666843381   -1.2275149980
 C   -2.6492922708   -3.1338508300   -1.3452812765
 C    0.7135224180   -2.5550572580   -2.1062686260
 C    1.4813911840   -2.9301500922   -2.9487860419
 H    0.5824829408    1.7960385540   -0.9658385074
 H   -1.0579343734    1.7151838215   -0.3290359571
 H    0.3121613393    1.9630826757    0.7954031192
 H    0.1886531144   -2.4027684074   -0.0768412964
 H   -3.6213157231   -3.5483492326   -1.4541147713
 H    2.1574459076   -3.2633805377   -3.6973785929