18

 C   -0.0494769015    1.5552796568    0.0696511235
 C    0.0050598122    0.0183455524   -0.0065501028
 C    0.6855368926   -0.4699616199   -1.2005543946
 C    1.2525649658   -0.8526544252   -2.1958416582
 C    1.9128232151   -1.3275023643   -3.3546606652
 C    2.4740761637   -0.5540561425   -4.3578561560
 N    3.0095337849   -1.3972832513   -5.2906707921
 C    2.8082395836   -2.7036027965   -4.9148690771
 C    2.1328034668   -2.6965554600   -3.7218698516
 H    0.9583947613    1.9793476960    0.0792027292
 H   -0.5799473658    1.9679874370   -0.7929045840
 H   -0.5673393662    1.8753208090    0.9789533436
 H    0.5069509532   -0.3720541719    0.8890792655
 H   -1.0167720083   -0.3832840490    0.0253151762
 H    2.5258157660    0.5166532736   -4.4657999346
 H    3.4808549689   -1.1028376744   -6.1275509687
 H    3.1613694495   -3.5182140724   -5.5259930906
 H    1.8196252183   -3.5589025973   -3.1553184424