14

 N    0.0422370731   -1.1140113310    0.0703809281
 C    0.0362423477    0.0389462501    0.0434552402
 C   -0.0068101118    1.4949278865   -0.0451068694
 O   -0.6914080554    2.0490432269    1.1062423463
 C   -0.1763542630    3.3862057412    1.1865205965
 C    0.7612855534    3.4413761529   -0.0629857041
 O    1.2676271419    2.0915797079    0.0024372478
 C   -0.1546135327    3.3799484459   -1.2767506300
 C   -0.6445423167    2.1406139799   -1.2797844299
 H   -0.9936182638    4.1116212092    1.1495974586
 H    0.3939040749    3.5003058619    2.1127643643
 H    1.5697037520    4.1674527523   -0.0409798941
 H   -0.4335827118    4.2205599222   -1.8959754881
 H   -1.4105181080    1.6874467540   -1.8908482261