17

 C    0.0054774141    1.4816928977    0.0335343469
 C    0.0301945205   -0.0144304541    0.0094130198
 C   -0.9276236663   -0.8605934242    0.8474310418
 C   -1.9423661435   -1.8098962046    0.4709718468
 N   -2.8004219564   -2.5464135619    0.2226905382
 C    0.5740287987   -1.0592155890    0.9559846086
 C    1.2206430033   -1.7216491823   -0.2687969084
 C    0.3209177770   -2.0449656150   -1.3922761581
 N    0.7192907621   -0.6356966648   -1.1911708926
 H    0.9993612417    1.8780342480   -0.1937188588
 H   -0.6884996301    1.8638587850   -0.7234933920
 H   -0.3091218870    1.8597655973    1.0104545379
 H   -1.2795663817   -0.2553736017    1.6812261052
 H    1.0791423828   -0.9466748977    1.9068479998
 H    2.2715499047   -1.9903787997   -0.2659737018
 H    0.7991255560   -2.4600213377   -2.2755445734
 H   -0.7016953159   -2.3656038853   -1.2538852900