16

 O   -0.1308451490    1.3008939420    0.1470797988
 C    0.0919851501   -0.0636608496   -0.0289417342
 C    1.3547062688   -0.6728360724    0.7002941368
 C    1.2066772187   -2.1139021645    0.2361533470
 C    0.4088280533   -2.1008610210   -0.8534279163
 C   -1.1066940362   -2.1468579389   -0.7593862228
 C   -1.2925958459   -0.8042854117   -0.0522653964
 N   -1.3234629416   -0.9179841418   -1.5580685026
 C    0.1912611000   -0.7006549075   -1.4374144279
 H    0.6959414378    1.7678795820   -0.0194055490
 H    2.2435539575   -0.1110268590    0.3722693027
 H    1.3321239151   -0.6203223927    1.7944656293
 H    1.2084345317   -2.9269367447    0.9557165643
 H   -1.8359648879   -2.9481858089   -0.7057597504
 H   -2.1761565616   -0.5209546278    0.5099799250
 H    0.7538680390   -0.2867635635   -2.2724063242