14

 O   -0.3544862585    0.0887720554    0.0068062724
 C   -0.0942125189    1.2703900993    0.0094655380
 N    1.1637339754    1.8096359140   -0.0009166887
 C    2.3629004404    1.0885634115   -0.0167670663
 C    2.6222199870   -0.2631695669   -0.0315331917
 C    4.0407227959   -0.4056850196   -0.0432416232
 C    4.5963384696    0.8476561091   -0.0356684914
 N    3.5613774257    1.7611680982   -0.0191838120
 H   -0.8641307544    2.0663108696    0.0208153607
 H    1.2211386557    2.8162143950    0.0012578399
 H    1.8745324992   -1.0356398146   -0.0331143263
 H    4.5857456471   -1.3367747242   -0.0560829433
 H    5.6212004125    1.1795754315   -0.0403080435
 H    3.6747536231    2.7595113318   -0.0095040047