17

 C   -0.0767350826    1.4703332503   -0.0260551175
 N    0.0904537583    0.0345736083   -0.0006446686
 C    0.6029201776   -0.6227358256   -1.0707247821
 N    0.6605262968   -2.0391182776   -0.9261283033
 C    0.2217537884   -2.8236432397    0.1025433577
 O   -0.3125613367   -2.4441572002    1.1252972930
 N    1.0087534946   -0.0092699249   -2.1166968485
 C    1.5666327523   -0.7568722655   -3.2216594857
 H    0.8800305088    1.9727546973   -0.2008176848
 H   -0.7627467197    1.7865029962   -0.8210138002
 H   -0.4767819373    1.7884027180    0.9388331371
 H   -0.2731544280   -0.5250980668    0.7563162232
 H    1.0723008676   -2.5236806339   -1.7078979627
 H    0.4110101157   -3.8942366341   -0.1003448497
 H    2.4832315005   -1.3127920855   -2.9575732970
 H    0.8588057938   -1.4773566291   -3.6673783228
 H    1.8447298898   -0.0617693574   -4.0184403282