23

 C   -0.1855699626    1.5250599495    0.0905419326
 C    0.0520324876    0.0128790838    0.0748345921
 O   -1.1560489354   -0.7064873974    0.3084505177
 C    0.7395776609   -0.4403324534   -1.1927197452
 C    0.0074135018   -0.8684238137   -2.4340137891
 C    0.9256407485   -1.8507676767   -1.7492737358
 C    2.4000531858   -1.5609112637   -2.0730923599
 C    2.9095091971   -1.7868234701   -3.4913697534
 C    2.1934801352   -0.0928295116   -1.5571489490
 H    0.7563508270    2.0742766445   -0.0065051349
 H   -0.8290361056    1.8214402336   -0.7471850345
 H   -0.6686761792    1.8251719310    1.0246915477
 H    0.6944272075   -0.2497126035    0.9264263638
 H   -1.8261365841   -0.3442749305   -0.2811246041
 H   -1.0462332528   -1.0926863526   -2.3025277073
 H    0.2524681849   -0.4407516213   -3.4035457443
 H    0.5383762559   -2.7826314466   -1.3538006693
 H    3.0434682668   -2.0996153674   -1.3699917109
 H    2.2917151891   -1.2682382960   -4.2319606670
 H    3.9364746232   -1.4210061935   -3.6027554765
 H    2.9058723695   -2.8529071707   -3.7445139674
 H    2.3203712783    0.7060929468   -2.2964272451
 H    2.8160700906    0.1385879095   -0.6883455002