25

 C   -0.0322951200    1.5191530092   -0.2091487501
 C    0.0415679193    0.0298601947    0.1482938972
 C    0.4934442468   -0.1845917121    1.5978091526
 C   -1.3038387474   -0.6450560569   -0.1178849517
 O   -1.1771681780   -2.0377470967    0.0978707125
 C   -2.3751244542   -2.7481748992   -0.0504941357
 C   -2.9212137245   -3.0384269265   -1.4799590172
 C   -3.2509966486   -4.4769269647   -0.9930301548
 C   -2.2553173968   -4.2666908557    0.1814432071
 H    0.9354389632    2.0059808222   -0.0534691023
 H   -0.3187851303    1.6704388120   -1.2555091695
 H   -0.7669292676    2.0394462762    0.4172588933
 H    0.7723531897   -0.4519459654   -0.5151752168
 H   -0.1948929547    0.3075672639    2.2961632284
 H    0.5180772266   -1.2488569125    1.8422329828
 H    1.4912569346    0.2339438917    1.7646979664
 H   -2.0765064152   -0.2261271468    0.5521768479
 H   -1.6295290680   -0.4457936957   -1.1519481119
 H   -3.1626571223   -2.3053585896    0.5808980955
 H   -3.7364691471   -2.4214135314   -1.8648531727
 H   -2.0968010171   -3.0384088487   -2.1994720853
 H   -4.2835073437   -4.5619852833   -0.6434107454
 H   -3.0505012265   -5.2997908243   -1.6815005630
 H   -1.2471209975   -4.5977731889   -0.0830331969
 H   -2.5139463706   -4.6585700915    1.1674416897