17

 C   -0.0334140360    1.5703405171   -0.0658152096
 C   -0.0068914273    0.0621393538    0.0095249874
 N    1.2947882915   -0.6139964021   -0.1731793165
 C    0.6734388498   -0.6768712052    1.1532840923
 C    1.3709284456    0.0633870809    2.2820694000
 C    0.1101030295   -1.9480530109    1.5734326203
 N   -0.2953337834   -2.9672890837    1.9409253544
 C   -1.1894783743   -0.6231957476   -0.6142574019
 O   -2.1151470035   -0.0321714161   -1.1057819944
 H    0.9221869530    2.0009868035    0.2312969147
 H   -0.2478492553    1.8760386463   -1.0930347340
 H   -0.8273409757    1.9739354122    0.5682826116
 H    1.1868916983   -1.4967202751   -0.6730495808
 H    1.8735038740    0.9519451031    1.9016669836
 H    0.6535537825    0.3550659376    3.0539122841
 H    2.1223389876   -0.5865020696    2.7391955638
 H   -1.1356064462   -1.7341460540   -0.6184094348