19

 C    0.6075413822    1.5064927861   -0.0849675335
 O    0.4556703264    0.1162427490   -0.2396244996
 C    1.6357183532   -0.5158514805   -0.6909663746
 C    1.3535393517   -1.9985284284   -0.7409847224
 C    0.9616831062   -2.7756196653   -1.9336632606
 C    1.6353306422   -2.2838623336   -3.2121461291
 C    2.9782702847   -2.4582570881   -2.4607033606
 N    2.3007422426   -3.0181475739   -1.2320082775
 H    1.3899697522    1.7532483135    0.6505079258
 H    0.8658070822    1.9996583981   -1.0359556109
 H   -0.3473601687    1.9023934861    0.2690272862
 H    1.9338819720   -0.1091913094   -1.6687953880
 H    2.4684655226   -0.3217743511    0.0082667926
 H    0.8908278364   -2.3384498776    0.1835304413
 H    0.1624396981   -3.5095471326   -1.8967266489
 H    1.5288436770   -2.9838363801   -4.0424911416
 H    1.3582144227   -1.2851645367   -3.5636332920
 H    3.6205961391   -3.2280082990   -2.8923495749
 H    3.5841622970   -1.5656015566   -2.2767843616