19

 C    0.2067215865    1.2847981543   -0.3403140050
 C    1.4686333485    1.8869530925    0.3283623047
 C    2.1077702632    0.6888413703    1.0187426028
 C    2.3230269880   -0.5552946908    0.1711859007
 C    3.0071495577   -1.7201295772    0.8593192475
 O    2.3371620132   -1.9010424663    2.1126468283
 C    0.9861634627   -1.4736351906    1.9838646453
 C    1.0424670949   -0.3666450703    0.9634511339
 O   -0.1371639318    0.1103661866    0.4021865700
 H   -0.6576770857    1.9531480711   -0.3321782330
 H    0.4167463905    1.0100035126   -1.3830346388
 H    2.1119878002    2.3804855315   -0.4063916713
 H    1.1934986686    2.6299856927    1.0837763664
 H    2.7177636550    0.8474623107    1.9023597177
 H    2.3627941935   -0.4884875296   -0.9105625155
 H    2.9233724471   -2.6224853033    0.2329305945
 H    4.0657951600   -1.5598745931    1.0911768837
 H    0.3251012052   -2.2802572671    1.6272721722
 H    0.6457152127   -1.1561157044    2.9746537460