17

 O    0.2718657372    1.2184860209   -0.4209098590
 C    0.1018820866   -0.1658924444   -0.1680976753
 C   -1.3774163350   -0.5648972128   -0.1155464043
 C   -1.5410463254   -2.0786780668    0.1495049439
 O   -0.9416286703   -2.4528917597    1.3649468660
 C   -3.0098090269   -2.4534510542    0.1671002111
 O   -3.5616483817   -2.8145743983    1.1847554550
 C   -3.8260601251   -2.3999401068   -1.1267223805
 O   -3.3539442881   -2.1389213645   -2.2010979289
 H    0.0092949906    1.6987658469    0.3705628882
 H    0.5912722874   -0.6846169829   -1.0001730741
 H    0.6018968795   -0.4793662936    0.7570287142
 H   -1.8785111354   -0.0141991366    0.6917134768
 H   -1.8553249073   -0.2948796915   -1.0614758903
 H   -1.0650910136   -2.6256987655   -0.6789445277
 H   -1.6663759029   -2.6960199604    1.9607093953
 H   -4.8944586097   -2.6552366098   -0.9691795707