12

 C    0.0252010588    1.4302652702    0.0661304369
 N   -0.0920327558   -0.0068853989   -0.1023723878
 C    0.5884378108   -0.6416911785   -1.0913545489
 N    1.1860902298   -0.0207946967   -2.0883807892
 O    1.6854249083   -1.0974830169   -2.8635174180
 C    1.3363024627   -2.2060303077   -2.2232055380
 N    0.6663587130   -2.0243409796   -1.1324108817
 H    1.0414998642    1.7464143953    0.3382058407
 H   -0.2419064131    1.9284032193   -0.8693636422
 H   -0.6698414624    1.7525228367    0.8437805519
 H   -0.2445095731   -0.5699050462    0.7184968039
 H    1.6381058768   -3.1453912369   -2.6642915576