21

 C    0.0563386261    1.4729526051   -0.1257748662
 C   -0.0184563765   -0.0175109536   -0.0587654143
 C   -1.0685048955   -0.7990372691    0.1783844760
 C   -0.6739012695   -2.2497614916    0.1465947252
 C   -1.4302917150   -3.0965915713   -0.8831268581
 C   -0.9624037796   -4.5530379148   -0.9087696307
 O   -1.7018055571   -5.3496395816   -1.8237818124
 O    0.7271245791   -2.2312634141   -0.1666049847
 C    1.1948373722   -0.8915848686   -0.2568337180
 H    0.7558748431    1.8690904541    0.6211467667
 H    0.4229002287    1.8077194757   -1.1044063731
 H   -0.9201228684    1.9323238852    0.0465040066
 H   -2.0831328852   -0.4725223240    0.3720856305
 H   -0.8031277643   -2.7165547866    1.1398357833
 H   -2.5031742243   -3.0712914010   -0.6559988264
 H   -1.2944712243   -2.6434406856   -1.8741975112
 H    0.1155797843   -4.5898057106   -1.1169646666
 H   -1.1194176813   -5.0112378118    0.0745732366
 H   -1.5070751759   -5.0302216329   -2.7104101008
 H    1.6751887559   -0.7267644744   -1.2347624661
 H    1.9638914876   -0.7033788485    0.5115641835