18

 C    0.0758078356    0.6094626312   -0.9881364189
 C   -0.0293792320    0.0279383778    0.4287795525
 O    0.2774729494    1.0060861363    1.3886254321
 C   -1.4121497966   -0.5477928685    0.6861212436
 N   -2.1447544633   -0.0456290510    1.5884689926
 O   -1.6750931418   -1.5841406417   -0.1468921393
 C   -2.9342304507   -2.2279040639   -0.0455732675
 C   -2.9683050899   -3.3399373928   -1.0836788693
 O   -3.9236998354   -4.0478192339   -1.2453914901
 H    1.0761168029    1.0263052260   -1.1271214004
 H   -0.0969326684   -0.1587429525   -1.7463342119
 H   -0.6528051083    1.4151149790   -1.1196001701
 H    0.6824718286   -0.8087389339    0.5155017905
 H   -0.5221436366    1.1060258266    1.9289636987
 H   -3.0567357237   -0.4793225488    1.7024210758
 H   -3.0821421650   -2.6639728271    0.9519862053
 H   -3.7599793182   -1.5297745663   -0.2384475332
 H   -2.0330260966   -3.4378369766   -1.6750326307