18

 C   -0.0235451237    1.3782388542   -0.0540157059
 N   -0.0027239549   -0.0762879479   -0.0177796902
 C    0.5756362174   -0.6356480316    0.9536502836
 O    1.2088122186   -0.0532666766    2.0161552040
 N    1.7248455871   -1.0668592124    2.8835759794
 C    1.3905919155   -2.1833834871    2.3234103736
 C    1.7312839945   -3.5129812107    2.8967987854
 N    0.6957266105   -2.0076374730    1.1564389000
 C    0.1574889657   -3.0027727930    0.2539711138
 H    0.9867992538    1.8089371968   -0.0854176008
 H   -0.5573485968    1.7023856980   -0.9507619498
 H   -0.5322445001    1.8097320079    0.8191004646
 H    2.2844298698   -3.3687442565    3.8253435098
 H    0.8269409867   -4.0932658957    3.1074993230
 H    2.3467245913   -4.0942246482    2.2022853658
 H   -0.5829005897   -3.6349578897    0.7542432213
 H   -0.3255815146   -2.4560112127   -0.5573361628
 H    0.9493861486   -3.6358029118   -0.1586740447