17

 C    0.5953361669    1.4417403536   -0.6320386890
 C   -0.0125087684    0.1548995312   -0.1228390380
 C    0.8241083925   -1.0272828615    0.2369562868
 N    0.1001894736   -0.2898916126    1.2721997267
 C    0.8019530695    0.4832373438    2.2909613464
 C    0.5508008255   -0.2183954262    3.6469773995
 O    1.3528301515   -0.3111023838    4.5297711420
 C    2.2375658638    0.7259373279    2.0870538836
 N    3.3631255899    0.8831877791    1.8776871657
 H    1.6246436870    1.5821449051   -0.2967653749
 H    0.5969961973    1.4354090904   -1.7267591749
 H    0.0047610157    2.3083975466   -0.3135810104
 H   -1.0065826675   -0.0467700834   -0.5199075467
 H    0.4735411474   -2.0396167266    0.0570296180
 H    1.9031296965   -0.8989729008    0.1829904246
 H    0.3014550965    1.4599849015    2.3771303202
 H   -0.4785692879   -0.6270433443    3.7028707004