16

 O    0.3159202026    1.0135986215    0.6856381153
 C   -0.0442381619    0.1747097985   -0.4021777924
 C   -1.4212537282   -0.3138491431   -0.3318495378
 C   -2.5444534333   -0.7321043558   -0.2109192213
 C   -3.9148260404   -1.2183915074   -0.1030499370
 C   -4.6735268476   -1.2447462303   -1.4710368481
 O   -5.1011108648   -2.6187423667   -1.6069616748
 C   -4.6294979862   -3.2572567212   -0.5121128960
 N   -3.9789771974   -2.6268918428    0.3729034337
 H    0.1050492513    0.5389535563    1.4966258929
 H    0.0951718263    0.7807249120   -1.3043656115
 H    0.6382659915   -0.6857163752   -0.4905478337
 H   -4.4509823363   -0.5945945856    0.6223947094
 H   -5.5591296800   -0.6058409903   -1.4811807460
 H   -4.0291906830   -0.9952816086   -2.3161519812
 H   -4.8639792725   -4.3155973312   -0.4789828115