15

 N   -0.1230410836    1.3416502932   -0.4225155450
 C   -0.0911351304   -0.0087829544   -0.0968894324
 C   -1.0488487211   -0.9899078608   -0.2525311024
 N   -0.4257006213   -2.1235112817    0.1832339491
 C   -0.9225698306   -3.4784490103    0.1933153119
 C   -0.9680998509   -4.0915867400   -1.2060478387
 O   -1.7462121987   -4.9490425134   -1.5214764316
 N    0.8326441880   -1.8650259857    0.5627656883
 N    1.0373360773   -0.5838372272    0.4040474056
 H    0.6482093238    1.8372908455    0.0057532486
 H   -1.0011491948    1.7981174525   -0.2190470178
 H   -2.0650782110   -0.9832459538   -0.6069427184
 H   -0.2232027912   -4.0631431893    0.8006387114
 H   -1.9142116361   -3.5351516962    0.6498443538
 H   -0.2025039993   -3.6876638783   -1.9039607023