22

 C   -0.1207155921    1.6415935398    0.1655108928
 C    0.0106360276    0.1246301323    0.1172715762
 C    1.1398807330   -0.5862262061   -0.6950606120
 C    2.1373036375   -0.1649934333    0.4202095547
 C    0.8650145273   -0.6688496438    1.1724906202
 C    0.6483275760   -0.7357694306    2.6622311915
 C    0.8777040040   -1.8697105699    0.1578621419
 C   -0.3257001204   -2.7767202595   -0.0601836220
 H    0.8255926350    2.1652980709    0.3202920768
 H   -0.5530884884    2.0152144419   -0.7697806242
 H   -0.7979387655    1.9401663276    0.9742363543
 H   -0.9842774010   -0.2984524080   -0.0452400202
 H    1.3041335997   -0.5383732252   -1.7736198253
 H    3.0342653060   -0.7829221830    0.5271299041
 H    2.3886139525    0.8926605382    0.5043228229
 H    0.6826697710    0.2621731041    3.1138136151
 H   -0.3263379239   -1.1760182041    2.9019851835
 H    1.4189102586   -1.3464395922    3.1462849633
 H    1.7755849837   -2.4913353743    0.2641846534
 H   -1.2677837396   -2.2421457995   -0.2026441970
 H   -0.1698022946   -3.4056247302   -0.9440143982
 H   -0.4555145367   -3.4497011151    0.7952900381