12

 C   -0.0418624161    1.3846014853    0.0611041798
 O    0.0104827198   -0.0522735762   -0.0119605757
 C    0.6193381031   -0.5381581279   -1.0789575625
 N    1.1596939625    0.1381319824   -2.0398330465
 O    1.6683716702   -0.8661814926   -2.9237958611
 C    1.4011153756   -2.1156911863   -2.4370633616
 O    1.7032345247   -3.1494398138   -2.9566001444
 N    0.7222535108   -1.8893973859   -1.2436123916
 H    0.9693670970    1.7984340978    0.0806612723
 H   -0.5805848538    1.7867748300   -0.8004329996
 H   -0.5697104590    1.6085398993    0.9867604713
 H    0.3798237452   -2.6088773022   -0.6308935705