21

 C   -0.1001184193    1.5536449378   -0.0337649134
 C    0.0114590421    0.0335075552   -0.0017581092
 C    1.1325270410   -0.5587886421   -0.8808909667
 N    1.2775854953   -1.9959192501   -0.6785186584
 C    1.8689264841   -1.1001853840    0.3175071848
 C    3.3241302279   -1.2187704930    0.6509163479
 C    0.7683392945   -0.5572197968    1.2173257780
 C    0.8760641713    0.0201104642    2.5712432378
 N    0.2300598024   -1.2963258381    2.3619662385
 H    0.8736972386    2.0236407379    0.1383993067
 H   -0.4727998242    1.8957427188   -1.0053985985
 H   -0.7906580829    1.9208494173    0.7327863854
 H   -0.9710002540   -0.4216714077   -0.1896794816
 H    1.5163416591   -0.1220908159   -1.7968747303
 H    0.4202881589   -2.4371520386   -0.3478874825
 H    3.8933697154   -1.5021965265   -0.2379351880
 H    3.7218233653   -0.2743685077    1.0372346930
 H    3.4846730237   -1.9900702316    1.4131752351
 H    1.8196640711   -0.0204094889    3.1093666371
 H    0.2540615812    0.8762509141    2.8211736288
 H   -0.7813687916   -1.1874999142    2.3995031055