18

 C    0.1942462037    1.4960770568   -0.0138685336
 C   -0.0095487926   -0.0043794507    0.0160927909
 C   -0.8957361634   -0.6330436898    1.0410409005
 N    0.5561066236   -0.7331286713    1.1646406213
 C    1.1513047194   -2.0397618383    0.8485599697
 C    1.7952627364   -1.9910999826   -0.5219420474
 O    0.8151184563   -1.7108642708   -1.5378698732
 C   -0.0030203092   -0.6449334601   -1.3547285023
 O   -0.6795618421   -0.2459654899   -2.2625427667
 H    1.1852495179    1.7514370097   -0.4039238756
 H   -0.5557713403    1.9601944852   -0.6589441782
 H    0.1107962571    1.9047870599    0.9955791499
 H   -1.3932875262    0.0010917822    1.7702729134
 H   -1.4489328083   -1.5285934411    0.7628906140
 H    1.9062782684   -2.2760010705    1.6067378486
 H    0.4026870054   -2.8431311390    0.8639413090
 H    2.5799422132   -1.2251915455   -0.5551983155
 H    2.2368543904   -2.9508359641   -0.7979035646