17

 C   -0.0416881008    1.3273437330    0.3302910284
 O   -0.1451113075    0.1343435619   -0.4270823888
 C   -1.3010913546   -0.5914137320   -0.1327869720
 C   -1.2923362312   -2.0145748694   -0.8102364698
 N   -1.3383653726   -2.5732737540    0.5572960481
 C   -1.5239864961   -3.5476644447    1.5040439136
 C   -1.6134180981   -2.8261365866    2.6839799494
 N   -1.5272518595   -1.4579751061    2.4814375887
 C   -1.3604005871   -1.3770896610    1.1815382366
 H    0.8879027003    1.8154818263    0.0309694341
 H   -0.8848598011    2.0053260999    0.1280861551
 H   -0.0120016433    1.1156145063    1.4075075548
 H   -2.2043667092    0.0003066690   -0.3449229900
 H   -2.1675890847   -2.2557227813   -1.4180143620
 H   -0.3688975264   -2.2344546730   -1.3493608603
 H   -1.5501120376   -4.6035884688    1.2968114752
 H   -1.7308695405   -3.2293205998    3.6791572988