27

 C    4.3205753251    0.8822254068   -0.6192244280
 C    2.8123793429    0.7331241759   -0.3793234325
 C    2.1574001449   -0.2093405472   -1.3723432707
 C    2.1072031506   -1.7144780360   -1.1751563707
 C    2.6953459038   -2.4070832452    0.0375895660
 C    0.8286453276   -0.8989931476   -1.1296981659
 C   -0.0116517018   -0.7067331137    0.1241808357
 C   -0.8412511989    0.5837207032    0.0286647363
 C   -0.9233079261   -1.9223264802    0.3554368019
 H    4.8366356511   -0.0766080523   -0.5055246531
 H    4.5232227864    1.2467265866   -1.6324819864
 H    4.7674092467    1.5913250909    0.0850765420
 H    2.6418752335    0.3993884727    0.6490581647
 H    2.3384633116    1.7208398224   -0.4549154613
 H    2.3216407339    0.1055941194   -2.4017582874
 H    2.2394835241   -2.2941948979   -2.0860866583
 H    2.5609765533   -1.8387305668    0.9608094899
 H    2.2330968027   -3.3889348375    0.1902729368
 H    3.7713897491   -2.5707147186   -0.0908961640
 H    0.2035697299   -0.9934471275   -2.0176310407
 H    0.6484020516   -0.6138130980    0.9943642362
 H   -1.4495194590    0.7303960098    0.9278098571
 H   -0.2022603967    1.4630067620   -0.0957171948
 H   -1.5229748796    0.5440452232   -0.8295003492
 H   -0.3427581463   -2.8433023773    0.4634779981
 H   -1.5310201296   -1.7955464439    1.2579307059
 H   -1.6089623409   -2.0587124131   -0.4895304876