20

 C    0.0114214445    1.3293688737   -0.1628630131
 O   -0.0137799346   -0.0802536009   -0.0283245567
 C   -1.2903601065   -0.6145769984    0.0488122644
 O   -1.9990154279   -0.4147804811   -1.1692177072
 C   -2.8057247976   -1.5496022265   -1.4686014672
 C   -2.2031135091   -2.6993176246   -0.6885515348
 N   -0.7504652091   -2.8141894214   -0.9324482428
 C   -1.2426754816   -2.1180325121    0.2760827340
 C   -0.9463435083   -2.6376547140    1.6552789852
 H    1.0593243375    1.6340949142   -0.1205345891
 H   -0.4223972362    1.6479002065   -1.1172204184
 H   -0.5372588595    1.8191792772    0.6567665526
 H   -1.8475718130   -0.1249840939    0.8734200828
 H   -3.8492712167   -1.3857415522   -1.1571671728
 H   -2.7821923384   -1.7022453632   -2.5527028030
 H   -2.7959618469   -3.5796840985   -0.4630293494
 H   -0.4405005090   -3.7450824141   -0.6592775664
 H    0.0775254771   -2.3816622642    1.9477135734
 H   -1.6240611586   -2.2019327148    2.3976640347
 H   -1.0538077361   -3.7261385417    1.6991687540