19

 C    0.9144230193   -0.8603398244    0.9271706571
 N    0.1072772032   -0.2507342819   -0.1287807340
 C   -1.2996956345   -0.6579479015   -0.1068644724
 C   -2.0364562366   -0.1263135058    1.0479971029
 C   -2.5878080179    0.3618034494    1.9986061203
 C   -1.9698251223   -0.2390858488   -1.4536608500
 C   -1.2718059560   -0.8758795168   -2.6693655359
 C   -3.3963131478   -0.5766194395   -1.4507920857
 N   -4.5147634368   -0.8656146982   -1.4810056095
 H    1.9338261316   -0.4706359526    0.8635883326
 H    0.5321178069   -0.6790933979    1.9435032741
 H    0.9600844547   -1.9429839317    0.7680458026
 H    0.1487985586    0.7603631000   -0.0355014281
 H   -1.3161874042   -1.7547273158   -0.0626715989
 H   -3.0974148232    0.7726104805    2.8353531502
 H   -1.8966684839    0.8538025655   -1.5254524304
 H   -1.3829633158   -1.9639938160   -2.6500688855
 H   -1.7094269452   -0.5058130011   -3.5993229893
 H   -0.2095628501   -0.6321214534   -2.6410738099