18

 C   -0.4840229549    1.4616802959   -0.1060758262
 C    0.0410365174    0.0466746403   -0.0651076028
 O    1.4220783638   -0.0455025187   -0.6587091991
 C    1.8896037459   -0.3985337407    0.5683214688
 N    2.9707569939   -0.2521506004    1.2092038917
 C    2.5151510284   -0.4475876315    2.6233946414
 C    0.9947246115   -0.0273878938    2.6467692144
 O    0.8509856966    1.3709511793    2.7975538326
 C    0.5903492899   -0.5939340495    1.2564357682
 H    0.1675375128    2.1533979958    0.4276473594
 H   -0.5820367755    1.7935174389   -1.1437329775
 H   -1.4716331755    1.4970900907    0.3642636403
 H   -0.6086350838   -0.6378322000   -0.6156558242
 H    2.6518127598   -1.4872257061    2.9479905612
 H    3.0997949767    0.1909293237    3.2922202148
 H    0.4367968265   -0.4795309657    3.4704384694
 H    1.5571389572    1.7953273228    2.2961902665
 H    0.2757845192   -1.6365598409    1.3521900308