12

 O    0.0518229744    0.0625054014    0.1628216901
 C   -0.0227605447    1.2452648877    0.0762117890
 C   -1.0866207927    2.2860554138    0.0054761413
 C   -0.4196681260    3.5348052612    0.6543342529
 C    0.9553508806    3.0608662829    1.1179504178
 N    1.0556383374    2.2529327422   -0.1725068127
 C   -0.0666048936    3.1454785144   -0.7297022992
 H   -2.1563096239    2.2079417200   -0.1320089132
 H   -1.0349366863    4.3590853120    0.9952869252
 H    1.7019717532    3.8579703690    1.1145916771
 H    1.0445913689    2.4607565234    2.0296223338
 H   -0.0935766173    3.5865188519   -1.7137971722