18

 C   -0.0266704934    1.5277492900   -0.0221190820
 C    0.0104053693   -0.0102954055    0.0156821349
 C    0.8390669383   -0.6106712780   -1.1693926375
 O    1.4113724402   -1.8223913838   -0.7106274429
 C    1.5684355817   -1.7336391263    0.6823400191
 C    2.2462332373   -0.5161013716    1.2531630682
 C    0.7293193002   -0.6163781482    1.2284559186
 C   -1.3633544013   -0.5347057286   -0.0149106309
 N   -2.4485395211   -0.9322973860   -0.0377188107
 H    0.9888210249    1.9231468871    0.0631144767
 H   -0.4655353119    1.8873840114   -0.9574394232
 H   -0.6219690422    1.9233811795    0.8043564760
 H    0.2315391172   -0.8274008819   -2.0503954760
 H    1.6159546097    0.1128279614   -1.4534228937
 H    1.6656829782   -2.7084818539    1.1428927435
 H    2.7182905139   -0.6191785914    2.2239552256
 H    2.7549641000    0.1703119171    0.5850330435
 H    0.1794477289   -0.6979489514    2.1575185911