18

 N    0.0901304859    1.3528806790    0.0892357528
 C   -0.0037915853    0.0023052143   -0.0003250188
 C   -1.1147628289   -0.7914231086    0.0084097607
 C   -2.4885205602   -0.3813317516    0.0421541795
 O   -3.4379745653   -1.1567352929    0.0229643968
 C   -0.7326048994   -2.2627579506   -0.0041496682
 O   -1.4807934106   -3.0399488784   -0.9182722844
 C    0.7506645129   -2.2356764792   -0.4235413108
 C    1.2581416219   -0.8311161187   -0.0362087437
 H    0.9581806706    1.7971580217   -0.1577728983
 H   -0.7337621064    1.9243227280    0.0022395146
 H   -2.6844158041    0.7162543956    0.0751257268
 H   -0.8388514876   -2.6826008601    1.0119552529
 H   -2.4079840984   -2.8365729635   -0.7250650562
 H    1.3405289815   -3.0392236093    0.0218455157
 H    0.7732018347   -2.3595542537   -1.5100107809
 H    2.0006667176   -0.4258695051   -0.7342217770
 H    1.7254692208   -0.8215947670    0.9576723685