13

 O    0.0820108051   -0.1156217440    0.2907506007
 C    0.0491894041    0.9864608838   -0.1811761702
 C    1.2086743331    1.9746893430   -0.0695218547
 N    1.2671633354    2.9022076841   -1.1771887440
 C    1.6433695162    2.6920203917   -2.4759815108
 N    1.5882466919    3.7571180517   -3.1989199682
 O    1.1364914170    4.7701247533   -2.3143495115
 C    0.9397447987    4.2541438960   -1.0661061738
 O    0.5675829779    4.8521814510   -0.0965164221
 H   -0.8383585910    1.3803072346   -0.7247585826
 H    1.0475890117    2.5864962240    0.8272101407
 H    2.1470809941    1.4267171177    0.0500577741
 H    1.9605240557    1.7351626431   -2.8644781878