17

 C   -0.0240838074    1.4591399699    0.0877400320
 O    0.2791166502    0.0817695021   -0.0968060316
 C    0.6812819017   -0.5775744684    1.0756038499
 C   -0.4381536734   -0.9768066270    2.0633271966
 O   -1.3822438130   -0.3051308336    2.3837074734
 C   -0.1056144582   -2.4116998324    2.4879708536
 N    0.8765042080   -2.9093486027    1.5273215527
 C    1.2558503713   -1.9451025348    0.7715048080
 N    2.1741304915   -2.0528308623   -0.2340894207
 H    0.8490808119    2.0035208494    0.4788298480
 H   -0.2804545795    1.8570116943   -0.8963813332
 H   -0.8669067953    1.5938282714    0.7717185305
 H    1.4284531951    0.0239389975    1.6270437276
 H    0.2889658494   -2.4128707688    3.5148531193
 H   -1.0078082698   -3.0343919078    2.5028941518
 H    2.3644490014   -2.9938492401   -0.5471117064
 H    2.0785969261   -1.3660356568   -0.9674241516