19

 C    0.0792225592    1.6007767101   -0.1008251752
 C    0.0433220716    0.1459904601   -0.0567112654
 C    0.0207409886   -1.0589720023   -0.0281160773
 C   -0.0141117507   -2.5043035583    0.0147173507
 C    0.0927227602   -3.3025158289    1.3527482185
 C   -0.9910351233   -2.6815273809    2.2546450737
 C   -2.1483327302   -2.6847195160    1.2045028294
 C   -1.3537684287   -3.3065259158    0.0402010986
 O   -0.6289632798   -4.3881553376    0.6980678666
 H    1.0931888272    1.9783026724    0.0718890357
 H   -0.2516249877    1.9766887195   -1.0753633406
 H   -0.5724487973    2.0401481446    0.6623997256
 H    0.6548817654   -2.9562933006   -0.7211601159
 H    1.0496753508   -3.5949691916    1.7839677014
 H   -1.1967520108   -3.3189558831    3.1165737762
 H   -0.7258836309   -1.6810209884    2.6032847237
 H   -2.9843640444   -3.3238674636    1.4944961265
 H   -2.5240070383   -1.6859728032    0.9716087171
 H   -1.8747578110   -3.6030790364   -0.8696690490