20

 C   -0.0445692143    1.5949203528    0.0069186638
 C   -0.1906831248    0.0699447488   -0.0747230370
 C    0.6259496506   -0.5197949798   -1.2148693130
 C    2.1749367522   -0.7479923377   -1.1263570745
 C    1.9085628659   -1.9759932706   -0.2066378439
 C    0.8559749341   -2.0695623895   -1.3578741871
 C    2.0224459316   -1.7176936901   -2.3341006984
 C   -0.1572942844   -3.0792170522   -1.5363241481
 N   -0.9802940172   -3.8800610927   -1.6763145793
 H    0.9919448434    1.8857054123    0.2085582342
 H   -0.3462328890    2.0734027736   -0.9311821254
 H   -0.6677610462    2.0067757422    0.8059992442
 H    0.0820256202   -0.3732372383    0.8879270291
 H   -1.2445894546   -0.1877185503   -0.2396521207
 H    0.3172013402   -0.0604578540   -2.1616003812
 H    2.9448773717    0.0111234046   -0.9963618456
 H    2.6726199544   -2.7565709710   -0.2046200218
 H    1.5305700517   -1.7948912956    0.7987720977
 H    1.7323911895   -1.2791111213   -3.2915867170
 H    2.7920063948   -2.4835554712   -2.4510812257