14

 C    0.1022766802    1.4081083452   -0.0582559425
 N    0.0723156125   -0.0342598331   -0.0201574457
 N    0.1267720215   -0.7783164121   -1.1640419321
 C    0.0791240703   -2.0205385722   -0.7585675900
 N   -0.0043820116   -2.0902482153    0.6172522357
 C   -0.0110352098   -0.7960373871    1.1367688098
 O   -0.0729371304   -0.4313680019    2.2908860479
 C    0.1073041754   -3.1571823927   -1.5932254713
 C    0.1282702539   -4.1552371013   -2.2645576467
 H    1.0292991980    1.7624659066   -0.5177296235
 H   -0.7492591303    1.7966511658   -0.6239097272
 H    0.0472115765    1.7526096944    0.9754772792
 H   -0.0540257066   -2.9211524664    1.1806210036
 H    0.1476851505   -5.0265432399   -2.8721719772