25

 C    0.0686202012    1.5231998493    0.2362532390
 C    0.0307335807    0.0045208786    0.0469331269
 C    0.6952252532   -0.4575901750   -1.2552061233
 C    0.6452396672   -1.9787060889   -1.4462558249
 C    1.4098575145   -2.5129449385   -2.6646882667
 C    0.8880867092   -1.9651554702   -3.9908466719
 C    2.9552171230   -2.4904048046   -2.5056228874
 O    3.0212358649   -3.9265087172   -2.4155536280
 C    1.6027278042   -4.0531209770   -2.6326315345
 H    1.0995729574    1.8939162748    0.2594447559
 H   -0.4476464796    2.0376480042   -0.5820420460
 H   -0.4128310810    1.8217050671    1.1727134327
 H    0.5238439610   -0.4842389854    0.8975496125
 H   -1.0113668248   -0.3416160629    0.0629292397
 H    0.2075593504    0.0436747154   -2.1007412240
 H    1.7411330761   -0.1192306337   -1.2638886968
 H    1.0500743327   -2.4623118350   -0.5468440123
 H   -0.4035165463   -2.3011905688   -1.5172773856
 H    1.0214078193   -0.8809761170   -4.0611606258
 H    1.4173115731   -2.4179551365   -4.8355246641
 H   -0.1805274201   -2.1780182788   -4.1124000462
 H    3.5093409286   -2.1076960577   -3.3733468870
 H    3.3390879376   -2.0051779524   -1.5988863862
 H    1.1055524740   -4.5807693683   -1.8081610518
 H    1.3757951332   -4.5718894617   -3.5740441941