13

 C    0.0664039022    1.3427373393    0.0110242631
 O   -0.0641391157   -0.0888860792    0.0053899183
 C   -1.3049543044   -0.5444524385    0.0107797331
 N   -2.3575364786    0.1415859271    0.0203475814
 N   -1.2724248527   -1.9879729925    0.0039531431
 N   -0.1828298385   -2.7540953253   -0.0068078690
 N   -0.6260348009   -3.9660963050   -0.0096613116
 N   -1.9845263896   -3.9450750626   -0.0004630244
 N   -2.3839991875   -2.7203203061    0.0081103492
 H    1.1388893661    1.5307362426    0.0051078034
 H   -0.4113674132    1.7683129230   -0.8741764793
 H   -0.4001208982    1.7602718073    0.9060019240
 H   -3.1942637889   -0.4365997700    0.0227382586