14

 C   -0.1832844046    1.3598605397   -0.2755454954
 C    1.2213304365    1.0718702213    0.1621797725
 C    0.2150106549   -0.0605317488    0.0790117433
 C   -0.2961704800   -0.6921214710    1.3040392957
 N   -0.5757116219   -1.9699161081    1.3625248353
 O   -1.0209456228   -2.2041945603    2.6367956527
 N   -1.0192845549   -1.0618835723    3.3807130858
 C   -0.5805275013   -0.1277582047    2.5859280970
 H   -0.8398935258    1.8840405910    0.4102608427
 H   -0.3694853235    1.5749202023   -1.3213659086
 H    2.0116692558    1.0867114543   -0.5793077405
 H    1.5309453598    1.3978898923    1.1491335815
 H    0.3283349671   -0.7572342770   -0.7429733958
 H   -0.4811967795    0.8887236011    2.9339264639