17

 O   -0.0247239926    1.4045351877    0.0065808350
 C   -0.0177525274    0.0018184096    0.2067354649
 C   -1.3589620467   -0.5379496112   -0.2822650001
 C   -1.4476646542   -2.0418138326   -0.1549442270
 C   -1.8607472296   -2.6893560248    1.1341535615
 C   -2.7941115292   -2.7526397281   -0.0670957743
 C   -4.0159690531   -1.9987596300   -0.0569931461
 N   -5.0029387589   -1.3944910447   -0.0523406129
 H    0.8076507031    1.7614287788    0.3294520736
 H    0.8027008549   -0.4793619042   -0.3517053149
 H    0.1193981075   -0.2544600837    1.2695552662
 H   -2.1625480845   -0.0581038008    0.2862839218
 H   -1.4952996007   -0.2387117655   -1.3278660065
 H   -0.7154592182   -2.5907377831   -0.7419203926
 H   -1.3941863670   -3.6179932844    1.4414786788
 H   -2.1635361861   -2.0409269776    1.9488435844
 H   -2.8756182371   -3.7069083256   -0.5762084418