14

 C    0.9991097881    1.1058216685    0.0087287340
 N    0.2957974044    0.1374662291   -0.8386975980
 C   -0.3498615394    0.6000571955    0.4019855666
 C   -0.5292700472   -0.4155703997    1.4565875160
 N   -1.3324028337   -0.2118834695    2.5048867056
 N   -1.2057037226   -1.3331574447    3.2047290420
 N   -0.3960331794   -2.2576144733    2.7081494242
 C    0.0498454183   -1.6932728592    1.5860738844
 H    1.8798310494    0.7170316017    0.5116806718
 H    1.0761879380    2.1399974494   -0.3169314754
 H   -0.1178801675    0.5994121588   -1.6433845654
 H   -1.1686413358    1.3108902781    0.3282189436
 H   -1.7110756212   -1.4786214836    4.0633784903
 H    0.7319200786   -2.2049602911    0.9280125206