22

 C    0.1138986284    1.5698264489   -0.0092288894
 C    0.0494312715    0.0348651048   -0.0103290865
 C    0.7505061027   -0.5290688631   -1.2552125278
 C    0.6518980796   -0.5470779098    1.2745576852
 C   -0.1550389866   -0.2371206982    2.5403677745
 C   -0.9068635030   -1.5102242975    2.4549397292
 C    0.2883638451   -2.0355367422    1.5673801566
 C    0.9949230146   -2.2879144697    2.9072959179
 N    0.0611420307   -1.3161844769    3.5711167099
 H    1.1518257728    1.9172097683    0.0598129186
 H   -0.3106031852    1.9797397105   -0.9314679628
 H   -0.4383718029    2.0007257297    0.8310793656
 H   -1.0090123758   -0.2606987517   -0.0471453939
 H    1.8117255365   -0.2527784943   -1.2638289344
 H    0.6908833455   -1.6207811129   -1.2997485105
 H    0.2993853619   -0.1333690074   -2.1711127178
 H    1.7263731092   -0.3161230631    1.3102665284
 H   -0.4726151320    0.7212427148    2.9299705015
 H   -1.9461322180   -1.7796210386    2.5874360496
 H    0.2551658655   -2.7731524234    0.7677186736
 H    0.8071971077   -3.2800815361    3.3258739544
 H    2.0619077020   -2.0459520220    2.9860830082