20

 C    0.5352525378    1.4330646814    0.0230684653
 O    0.6830141564    0.0341676273   -0.0519525342
 C    0.1157940355   -0.6193003810    1.0680566012
 C    0.2855747022   -2.0605704962    0.9535502656
 C    0.4225877790   -3.2554521242    0.8746475053
 C    0.5602450201   -4.6875966870    0.7926941885
 C   -0.7309278074   -5.4757293713    0.6798587348
 C    1.8176240687   -5.2149412071    0.1754495753
 N    1.6135005476   -5.3307439997    1.6236483611
 H    1.0342735000    1.8515736508    0.9119635153
 H    0.9964503630    1.8549560032   -0.8725312040
 H   -0.5246387378    1.7327677943    0.0532562592
 H    0.5868393277   -0.2591365094    2.0000590524
 H   -0.9588250000   -0.3780275320    1.1499356310
 H   -1.2728179070   -5.2023392678   -0.2305663931
 H   -0.5113775501   -6.5458440687    0.6567056956
 H   -1.3799506573   -5.2765027595    1.5378611699
 H    1.7748899687   -6.1540992825   -0.3699358000
 H    2.5380183115   -4.4955102449   -0.2015061035
 H    2.1482490816   -4.6094890257    2.1015788945