20

 C   -0.0749696739    1.6415981649    0.1755806597
 C    0.0137064915    0.1192619147    0.0695824934
 N   -1.3393513652   -0.4069902720   -0.1321076674
 C   -2.0140955935   -0.3022032471   -1.3052079568
 O   -1.5598515681    0.1548938017   -2.3344293452
 C    1.1421979600   -0.5502268727   -0.7914230797
 C    2.1461388089   -0.1654963168    0.3361677282
 C    0.8862247810   -0.7140911747    1.0680399306
 C    0.8997495381   -1.8629513918    0.0130397482
 H    0.8905435783    2.1292854359    0.3108177620
 H   -0.5287225374    2.0333247250   -0.7385540817
 H   -0.7153577082    1.9222535241    1.0190817767
 H   -1.8478533543   -0.7404606845    0.6725144244
 H   -3.0474317585   -0.6984049842   -1.2247257033
 H    1.2703365082   -0.4429471206   -1.8668817289
 H    3.0351194193   -0.7958750059    0.4064910005
 H    2.4082418789    0.8831469358    0.4675742084
 H    0.7344783076   -0.8005267441    2.1470820606
 H   -0.0312201073   -2.3976920724   -0.1674742315
 H    1.7494268245   -2.5464948454    0.0725048919