12

 N    0.2334378678   -1.1485799478    0.0428286482
 C    0.1000603050   -0.0003805954    0.0296572001
 C   -0.0557397373    1.4612622895   -0.0006829101
 C   -0.5951578853    2.0535089072    1.3535408211
 N    0.5673539260    2.6501029604    2.0218129636
 C    1.5147222692    2.6442656889    1.1723850924
 N    1.2381598132    2.1532866608   -0.1024056802
 H   -0.7055105353    1.7156432712   -0.8422652249
 H   -1.3416576271    2.8291011708    1.1499566352
 H   -1.0626633585    1.2918446818    1.9808366516
 H    2.5044777700    3.0442700475    1.3706193771
 H    1.9784417222    1.6963762852   -0.6166250841