19

 C    0.0220287519    1.2608774909    0.0740096149
 O   -0.0669080981   -0.1514166628    0.0128053414
 C   -1.3467084358   -0.6437896387    0.0165535088
 C   -2.4917068222   -0.4231109721   -1.0383727994
 C   -3.0704778039   -1.4167943226    0.0058448878
 C   -1.6903370067   -2.1614660663   -0.0016224663
 O   -1.3047768937   -2.9837524831   -1.0626781208
 C   -2.4593869448   -0.4798962608    1.0953254682
 O   -2.1498372675   -0.9737558944    2.3711930337
 H    1.0842357287    1.5129107363    0.0589751738
 H   -0.4697518824    1.7355593639   -0.7869133229
 H   -0.4254959310    1.6539050109    0.9968403437
 H   -2.9487673265    0.5693135262   -1.0770078869
 H   -2.3296245382   -0.8010261997   -2.0496434246
 H   -4.0657256361   -1.8554796051    0.0036257400
 H   -1.4526921715   -2.7006555797    0.9127836772
 H   -1.3257502678   -2.4847970656   -1.8850385287
 H   -2.9200317679    0.5153008884    1.1409513444
 H   -2.9650643767   -1.0346510956    2.8786755957