20

 C   -0.1177694481    1.6511618185   -0.0372015472
 C    0.0180798561    0.1265212375   -0.0707814415
 C   -1.3408140451   -0.5787581763    0.0275407250
 N   -2.1965769444   -0.2686936783   -1.1406696897
 C   -2.6571276144   -1.3734557819   -1.5471679075
 O   -2.3164309918   -2.5248823374   -0.9171599806
 C   -1.3240016603   -2.1388934438    0.0871871084
 C   -0.0314624828   -2.8629434178   -0.2762511292
 O   -0.2179110007   -4.2641617244   -0.2757299792
 H    0.8605671127    2.1328749544   -0.1248153382
 H   -0.7508794745    1.9987363263   -0.8570346522
 H   -0.5720531616    1.9854721038    0.9022874103
 H    0.5201642636   -0.1772641395   -0.9960796496
 H    0.6524943682   -0.2058050366    0.7602988305
 H   -1.8528746095   -0.1893525756    0.9176340878
 H   -3.3349341806   -1.5057631944   -2.3836613415
 H   -1.6858041192   -2.5245516909    1.0440286681
 H    0.3331096551   -2.5053062912   -1.2513127660
 H    0.7399472080   -2.6475281704    0.4692627650
 H   -0.9583679508   -4.4410484320   -0.8673996327