19

 C   -0.0804469142    1.5626054658    0.0495888230
 C    0.0357619105    0.0536845810    0.0459888613
 C   -1.1665083645   -0.6711989093   -0.5330227047
 C    1.3500114766   -0.6378303482   -0.2295283111
 O    2.5443750429    0.1200303091   -0.0722308331
 C    2.5901228357    0.4419004846    1.2553122949
 N    3.6263483556    1.2700020534    1.5935816268
 N    1.6639771223    0.0079795935    2.0240409259
 C    0.7493634224   -0.7037626564    1.1677075345
 H    0.7666454624    2.0501082314    0.5341472032
 H   -0.1496901784    1.9465097540   -0.9746717252
 H   -0.9865993584    1.8694472642    0.5837530457
 H   -1.3512530253   -0.3627595519   -1.5686958204
 H   -1.0261010340   -1.7572816132   -0.5298164686
 H   -2.0682576989   -0.4523634266    0.0499844503
 H    1.4592137214   -1.4375636374   -0.9524719843
 H    4.4536232147    1.1711071885    1.0242813737
 H    3.8017545308    1.3085465303    2.5860251950
 H    0.2770215583   -1.5833109929    1.5921376730