15

 O   -0.1305517490    1.3827437937   -0.4486310652
 C    0.0136860484    0.0943594498    0.1428741387
 C   -1.3197437316   -0.5702992077    0.1038735674
 C   -1.6890175548   -1.8980737016    0.0577124279
 O   -0.8539596316   -2.9768819214    0.0286239580
 C   -3.1006656294   -1.8745711019    0.0676223217
 O   -3.8718515340   -2.9885532819    0.0349699382
 N   -3.5868277033   -0.6459407583    0.1082612615
 N   -2.4817370708    0.1371020961    0.1670514999
 H    0.6646328769    1.8889283046   -0.2592050064
 H    0.7419166235   -0.5296370906   -0.3953038156
 H    0.3696060064    0.1850912823    1.1820845208
 H   -1.3994573290   -3.7652130923   -0.0644541583
 H   -4.7930264418   -2.7019063784    0.0251463439
 H   -2.5610688799    1.1300507375    0.0348224676