21

 C   -0.0165567573    1.5769026297   -0.0433807676
 C   -0.0800667984    0.0438928901    0.0845968619
 C    0.6585357270   -0.4664367950    1.2352037959
 C    1.2678618096   -0.8635615045    2.1952633902
 C    2.0063393224   -1.3825831076    3.3405441320
 C    2.2156496188   -2.8971579086    3.2854771292
 C    2.8464501352   -3.5717175335    4.5237290147
 C    1.5559223056   -4.4142979357    4.5369647010
 O    0.9880730956   -3.6395746850    3.4608201758
 H    1.0174080616    1.9153662770   -0.1534480827
 H   -0.5840508267    1.9116839653   -0.9170073492
 H   -0.4351030831    2.0581953004    0.8447455788
 H   -1.1283180894   -0.2739947606    0.1550559591
 H    0.3108500985   -0.4153410885   -0.8326556133
 H    2.9960674420   -0.9073184618    3.3998061374
 H    1.4835223309   -1.1399974555    4.2747965715
 H    2.6987192839   -3.1648003457    2.3361183396
 H    3.7805567500   -4.1102305708    4.3590988757
 H    2.9613399783   -2.9048963428    5.3814899627
 H    1.6894327140   -5.4669151328    4.2555334938
 H    0.9440489316   -4.3667408343    5.4451482836