18

 C   -0.0551463085    1.4286382837   -0.0107915245
 C    0.0802137185   -0.0629301488   -0.0308382128
 C    0.5810246768   -0.9670639340   -1.1631130567
 C    0.0782958152   -1.9250784642   -0.0748314748
 C   -0.0323549038   -3.3510692631   -0.0975099339
 C   -0.1057301197   -4.5517368311   -0.1199468230
 C    0.5896903323   -1.0193934624    1.0992582753
 C   -0.8068441309   -1.0412656013    1.7028607733
 N   -1.1542615487   -0.9971332415    0.2169438810
 H    0.9241785317    1.9047196506   -0.1285424086
 H   -0.6985733497    1.7637105395   -0.8305900134
 H   -0.4915293897    1.7807280128    0.9293948901
 H   -0.0026848127   -0.9535755649   -2.0877033387
 H    1.6565571636   -0.9728605998   -1.3575360716
 H   -0.1765664975   -5.6111355992   -0.1421849660
 H    1.5798818558   -1.0494447808    1.5668847481
 H   -1.1387201634   -1.9594072817    2.1957278757
 H   -1.1488022290   -0.1620125238    2.2567882705