17

 C   -1.1487984475   -0.1605115466   -0.3060894655
 C    0.3083289032    0.2940674557   -0.2844028074
 O    1.1107425182   -0.3215864778   -1.2839607593
 C    1.4820159927   -1.6461435133   -1.0151886051
 C    2.3721036880   -2.1205009709   -2.1744646827
 O    2.9255839941   -3.3960864583   -1.9225454299
 C    1.6316028270   -2.0949680592   -3.4518394438
 N    1.0407089959   -2.1357052568   -4.4437833588
 H   -1.5804104336   -0.0073267834   -1.2991557539
 H   -1.2561689656   -1.2169567267   -0.0424280108
 H   -1.7292317262    0.4201923673    0.4180796673
 H    0.3687254058    1.3665193462   -0.4927702504
 H    0.7533108287    0.1237536116    0.7088028844
 H    2.0698087093   -1.7277704851   -0.0875235428
 H    0.6134836809   -2.3182513946   -0.9274132979
 H    3.2174969955   -1.4302744356   -2.2579862613
 H    2.2206074438   -4.0514951025   -1.9775659820