16

 C   -0.5632325677    1.7058946424   -0.4519343851
 N   -0.6919621800    0.2666450419   -0.4035680559
 C    0.1934488538   -0.5038686921   -0.8337062028
 C    1.5254364897   -0.2775905842   -1.4855529390
 O   -0.1390456911   -1.8840147611   -0.7667545851
 C    0.5112271350   -2.6544110603    0.1310240681
 O    1.3682129149   -2.2983854098    0.8887467522
 C   -0.0347861692   -4.0887508278    0.0287631365
 O    0.3988722839   -4.9764895138    0.7048190092
 H    0.3514397757    2.0867846360   -0.9234047752
 H   -1.4273535667    2.1152019050   -0.9857598678
 H   -0.6113168292    2.0924319354    0.5715399844
 H    2.3119567729   -0.7031370387   -0.8564961647
 H    1.5531588985   -0.7888089521   -2.4529672181
 H    1.7294742145    0.7815070082   -1.6399952455
 H   -0.8481074551   -4.2197751589   -0.7119775412