18

 C    0.1233977096    1.4216906228    0.0117174762
 N   -0.1283381833    0.0017326069    0.0139546377
 C   -0.0581262744   -0.7979909878   -1.0871505056
 C    0.0203980555   -2.1298712071   -0.8042238419
 C    0.0537260942   -2.2723193459    0.6398006010
 O    0.1128005432   -3.2592760950    1.3536243981
 C   -0.0170534226   -0.8475945844    1.1710974802
 C    0.7612373271   -0.4896201782    2.4162921160
 C   -0.7344245612   -0.5920846891    2.4743436893
 H    1.1752513259    1.6675544632    0.2170718702
 H   -0.1384524264    1.8273586205   -0.9688853148
 H   -0.4990905230    1.9240152496    0.7594545644
 H   -0.0813544708   -0.3292363145   -2.0642111745
 H    0.0355897213   -2.9373230407   -1.5184150081
 H    1.3452394521   -1.2997788100    2.8399658225
 H    1.2100321256    0.4956332991    2.4760076026
 H   -1.3086615703    0.3230324344    2.5679922334
 H   -1.1676114324   -1.4730846639    2.9357199132