16

 O   -0.4643286060    1.1633799519    0.0835516017
 C    0.1120754602   -0.1111721853   -0.1400750047
 C    0.9966081694   -0.0865633379   -1.3259841311
 N    1.7088934916   -0.0303927474   -2.2339950087
 C    0.8624433222   -0.6513502209    1.0638491782
 C    0.0859617468   -1.1010437878    2.2644660031
 C    0.7992952711   -2.1368620788    1.4110667030
 C    0.0430777398   -3.0508861949    0.6046617383
 C   -0.5879637610   -3.8206003539   -0.0709135045
 H    0.2455248039    1.7929946724    0.2548235724
 H   -0.7272913536   -0.7769878483   -0.3639448644
 H    1.8243781787   -0.1786428564    1.2410261778
 H    0.4894097327   -0.8924982964    3.2483812889
 H   -0.9956495506   -1.0726398328    2.2003474555
 H    1.7156118935   -2.5485612949    1.8229631220
 H   -1.1397129488   -4.5040195385   -0.6678935175