20

 C   -0.1045237037    1.5457552672    0.1049979882
 C    0.2607058790    0.1128564989   -0.2552629961
 C    1.7138320831   -0.1830216156   -0.7872749427
 C    1.9122024909   -1.1699192064    0.3687536387
 N    1.7033418393   -0.4056608675    1.6227132319
 C    0.5260861737   -0.8670344739    0.9013349915
 C    2.5554384411   -2.5006772089    0.4447308076
 C    3.0799729903   -3.0974519382   -0.8451086743
 O    2.6363396257   -3.0853071431    1.5098145085
 H    0.6080897489    1.9480633351    0.8296862943
 H   -0.0948332743    2.1866074759   -0.7831427522
 H   -1.1069586220    1.5989992164    0.5438097640
 H   -0.4760924598   -0.3139512500   -0.9422837397
 H    1.7128208220   -0.6491430784   -1.7745066276
 H    2.4061241021    0.6627635207   -0.7825894617
 H    1.8834537908   -1.0768769501    2.3725641150
 H   -0.1675628497   -1.5660804474    1.3550688328
 H    3.8289390110   -2.4353242103   -1.2939102047
 H    3.5226753386   -4.0728746569   -0.6419995270
 H    2.2716634830   -3.2048258672   -1.5770201765