18

 O    0.1741506436    1.4688608638    0.0866598326
 C    0.1007927091    0.0530544714    0.0853827401
 C    0.6282676636   -0.4904771046    1.4289512579
 O   -0.5000496003   -0.6996369239    2.2804249801
 C   -1.5855191367   -1.1014811009    1.4638030965
 C   -2.8348339616   -0.2149087545    1.5273631053
 C   -2.4704101630    1.1972708122    1.3859901302
 N   -2.5502336028    0.3842494739    0.1428678597
 C   -1.3354458770   -0.5243443947    0.0625126840
 H   -0.5021367481    1.8007947736   -0.5141356588
 H    0.6941617823   -0.3482769762   -0.7483436839
 H    1.1678910232   -1.4360875989    1.2670319592
 H    1.2975758181    0.2227535518    1.9159402394
 H   -1.7734818571   -2.1780722453    1.5392889892
 H   -3.8280163095   -0.5590565138    1.7926235571
 H   -3.2812900352    1.9179216467    1.4301248925
 H   -1.5128796654    1.5498790696    1.7469561132
 H   -1.4933376932   -1.2145682701   -0.7668618143