20

 C   -0.5688180398    1.3804497925    0.3160229765
 N   -0.0508244191    0.0296795172    0.1882220496
 C    0.3530555739   -0.4554455202   -1.1274139123
 C    1.6155202692    0.1867769783   -1.6416608499
 C    1.7063615849   -0.9025778381   -0.6038346570
 C    1.2787937672   -0.3784350385    0.7699155091
 C    2.1385064558    0.6717230434    1.4678791397
 C    0.9497222276   -1.5017094949    1.7427471981
 O    1.3764156993   -2.6251218518    1.6758751818
 H    0.0785626035    2.1636519755   -0.1114944001
 H   -1.5361816037    1.4315248997   -0.1946314051
 H   -0.7405135492    1.6165786724    1.3705735089
 H   -0.3550426134   -0.9732281096   -1.7650938492
 H    1.9114836243   -0.1172181433   -2.6411839694
 H    1.8583027728    1.2187074925   -1.4048601711
 H    2.2152194510   -1.8433592570   -0.7559644953
 H    2.3662912444    1.5126225011    0.8091147004
 H    1.6426891890    1.0644331638    2.3624360659
 H    3.0855025309    0.2197240716    1.7801674191
 H    0.2328949813   -1.1925065545    2.5375865103