16

 C   -0.0866311335    1.3416525961    0.1006621219
 N   -0.0496918237   -0.0913096070   -0.1045700455
 C    0.6161172136   -0.6299341412   -1.1691203732
 N    1.1276490658    0.1270787025   -2.0736443521
 C    0.6694650876   -2.1011103428   -1.1805377311
 C    1.2162243738   -3.0295820355   -2.0106236918
 N    0.9638916191   -4.3015675948   -1.5218254226
 C    0.2913048593   -4.0945485074   -0.4376165267
 O    0.0669635372   -2.7926923452   -0.1539052660
 H    0.9114637183    1.7589772989    0.2856437481
 H   -0.4870733789    1.8351861130   -0.7887257663
 H   -0.7320512860    1.5587582194    0.9543137446
 H   -0.2721187295   -0.6981703371    0.6642359343
 H    1.5466964611   -0.4248806538   -2.8179935184
 H    1.7728342651   -2.8773406834   -2.9212456854
 H   -0.1067751192   -4.8188862518    0.2555262501