16

 C   -0.0843557150    1.4041327866   -0.0070141269
 N   -0.0597801761   -0.0446521619   -0.0061231453
 C    0.6050723714   -0.6210136313   -0.9343130324
 N    1.3359003748   -0.0155458562   -1.9316010992
 C    0.6429059463   -2.1132724431   -0.9358756159
 N    1.2463995662   -2.6687405497   -1.9321609689
 O    1.2414586834   -4.0459427900   -1.8762342536
 C    0.0253853676   -2.8297252792    0.1261644943
 C   -0.4778964715   -3.4835775876    1.0009077249
 H    0.9267037688    1.8399851354    0.0273916794
 H   -0.5856799977    1.8147443475   -0.9001482243
 H   -0.6363616287    1.7601047958    0.8660504758
 H    1.0833211834    0.9252296177   -2.1844860283
 H    1.6283764378   -0.6152980939   -2.6877035010
 H    1.7242402013   -4.2933055875   -2.6735167411
 H   -0.9295426820   -4.0410359426    1.7840517323