17

 O    0.1354913214    1.4140276010   -0.1375557408
 C    0.0473847945    0.0134485037   -0.0177617667
 C    0.6745991358   -0.5704239617    1.2290210134
 C   -0.0372314307   -1.5753520016    1.7316762876
 C   -1.2815427423   -1.8628253598    0.9206380967
 O   -2.4248616476   -2.2012526504    1.6703002286
 C   -1.4152079291   -0.5687772782    0.0327120497
 C   -2.3161471871    0.3857706211    0.6652243010
 C   -3.0295639640    1.1747090259    1.2299018943
 H   -0.4337161894    1.7986981429    0.5413525521
 H    0.5495746802   -0.3733248481   -0.9133644946
 H    1.6248315865   -0.2025242679    1.5993823879
 H    0.2210499427   -2.1844177393    2.5906191522
 H   -1.1163325987   -2.7254050994    0.2629600143
 H   -2.7044105066   -1.4079875968    2.1451349140
 H   -1.7874815298   -0.8054386060   -0.9678346681
 H   -3.6839852458    1.8712192345    1.6942105383