15

 C   -0.1499714936    1.4606265191    0.0120616183
 C    0.0529137332   -0.0329769641    0.0015795431
 O    1.1091089304   -0.6098770133   -0.0113005248
 O   -1.1416519375   -0.6768271357    0.0084782160
 C   -1.0423187832   -2.1118425499   -0.0006130563
 C   -2.3762290047   -2.6795357188    0.0092866131
 C   -3.4650997453   -3.2002511838    0.0169987794
 C   -4.7853318396   -3.7779296581    0.0263459787
 O   -5.0107088271   -4.9656417564    0.0240173401
 H    0.8195577922    1.9565837681    0.0055670252
 H   -0.7333390186    1.7648875925   -0.8613777341
 H   -0.7162793849    1.7547633002    0.9000839223
 H   -0.4872317543   -2.4392424591   -0.8872183006
 H   -0.4697806725   -2.4491721804    0.8710100325
 H   -5.6032146147   -3.0294809403    0.0361649671