22

 C    0.1620682713    1.5005984252   -0.4896210498
 C    0.0679829042    0.0436707660   -0.0897298301
 C    1.2876530426   -0.7965865319    0.0844531062
 N    0.4505708349   -0.4576177014    1.2321884099
 C    0.9987203800    0.4494097010    2.2320928201
 C    1.6639868074   -0.3506998509    3.3534137180
 C    2.2200807477    0.5608581500    4.4649589197
 C    2.8686310232   -0.1810819362    5.5391595086
 C    3.3991610971   -0.8144797526    6.4122209918
 H    1.1064651793    1.9593749179   -0.1876766421
 H    0.0850401718    1.5905227072   -1.5783460084
 H   -0.6556286209    2.0850438860   -0.0529542845
 H   -0.8259611720   -0.4506365586   -0.4693941768
 H    1.3018375065   -1.8426740943   -0.2108894516
 H    2.2478895773   -0.2878467964   -0.0093272924
 H    1.7289050521    1.1664945524    1.8180386479
 H    0.1700253621    1.0408942980    2.6429994435
 H    0.9377021933   -1.0511940637    3.7764179006
 H    2.4791066702   -0.9548431546    2.9396335823
 H    2.9355494129    1.2738422086    4.0333711683
 H    1.4054868469    1.1677125779    4.8826791465
 H    3.8688782922   -1.3649193496    7.1889349123