18

 N   -0.0469939845   -0.9793759766   -0.2638083495
 C    0.2408414820    0.0895810962    0.0654922184
 C    0.6381502201    1.4371684863    0.4866360860
 N    0.6694908327    2.3486588345   -0.6507459393
 C    0.9826157686    3.7353121576   -0.2968722518
 C    2.3804123031    3.9984816690    0.2343069211
 C    3.5348901507    4.1219062199   -0.7315377398
 C    3.0286676148    5.3392815518    0.0005455364
 H   -0.1050159024    1.8041168257    1.2060358041
 H    1.5887050685    1.3429723187    1.0403388285
 H    1.3380827205    2.0101182669   -1.3358923596
 H    0.8246546187    4.3408632820   -1.1975581249
 H    0.2330904387    4.0662595495    0.4340703485
 H    2.6086968080    3.5300075852    1.1881868013
 H    4.4966642272    3.7101960966   -0.4470716825
 H    3.3191652752    4.0475256022   -1.7933108739
 H    2.4724077264    6.0766836003   -0.5693875140
 H    3.6415896717    5.7607896543    0.7891517608