16

 O    0.2588519214    1.3763980000   -0.2691886727
 C    0.1566363709   -0.0140986724   -0.1988859416
 C   -0.0969417600   -0.6741089419   -1.5897368883
 C   -0.5668590934   -1.9423768985   -0.8494721133
 C   -1.1920715534   -0.7522822498   -0.0711444093
 C   -1.5998611402   -0.1201016897   -1.4414360058
 N   -1.1008414895   -0.6892168116    1.3852168051
 C    0.3147316043   -0.5231879724    1.3184292841
 O    1.1580301719   -0.6063545130    2.1584530611
 H    0.1490487140    1.7546402456    0.6108042056
 H    0.5139806207   -0.6186538065   -2.4924593955
 H   -1.2577089031   -2.5912452827   -1.3903333212
 H    0.2026802721   -2.5151458371   -0.3243764655
 H   -1.7131640972    0.9605118157   -1.4769026997
 H   -2.3581896549   -0.6459315225   -2.0263585394
 H   -1.5529535936   -1.3059127031    2.0519306264