18

 C    0.0603530308    1.6128048788   -0.0174645222
 C   -0.0167967095    0.1164292310    0.0504865702
 C   -0.8891017583   -0.6716200229    0.9781558567
 C    0.6043471746   -0.8848177400    1.0037599595
 N    1.2648194165   -1.6766250610   -0.1129365894
 C    0.2834800771   -2.2363834014   -1.0410811974
 C   -0.9355726263   -3.0628283983   -0.7446919853
 O   -1.0679662312   -3.7942062000    0.2019888174
 C    0.5389881336   -0.7701596580   -1.0844195133
 H    1.0421222255    1.9479212360   -0.3711600538
 H   -0.6965588472    2.0206504209   -0.6987963647
 H   -0.1094379651    2.0554259280    0.9687361054
 H   -1.2294892917   -0.1036163095    1.8404611837
 H   -1.6117427132   -1.4048964006    0.6457302506
 H    1.1974002160   -0.7428063181    1.8977869359
 H    0.8079887027   -2.7383932331   -1.8628535814
 H   -1.6968941475   -3.0199342632   -1.5584685911
 H    1.0762119032   -0.3320363585   -1.9217669009