18

 C   -0.0088429437    1.5339192167   -0.2615039535
 C    1.4795544685    1.6095109809    0.2635563343
 C    1.3010620929    0.1692302423    0.7921616764
 O    0.5908697630    0.0570043865    2.0504181103
 C   -0.3302670203   -0.7872785426    1.2798478375
 C    0.5647943489   -2.0293237902    1.0338062516
 C    1.5852583386   -1.2557626953    0.1612581487
 N    0.6771119536   -0.9291289380   -1.0068946530
 C    0.0318997975    0.0046966675   -0.0187228977
 H   -0.7177256879    2.0509497228    0.3870572852
 H   -0.1853700426    1.8465317078   -1.2932846248
 H    2.2246592473    1.6990275618   -0.5304386472
 H    1.6922001115    2.3547884001    1.0311468182
 H   -1.3142682063   -0.9050041226    1.7341559227
 H    0.9608992149   -2.3958998759    1.9820463484
 H    0.0977013342   -2.8303433348    0.4590708364
 H    2.5558088406   -1.7088975568   -0.0409876496
 H    1.1884094591   -0.3540197903   -1.6759461138