17

 C   -0.2265335531    1.4947689618   -0.0478553816
 C   -0.0215737591   -0.0008511519    0.0159732226
 O   -1.2686259089   -0.6719460486   -0.0026487275
 C   -1.0648552405   -1.9048801656    0.6526524024
 O   -0.1090304985   -1.6833046468    1.6705062880
 C    0.7668441922   -0.6788804756    1.1956716951
 C    1.8854448306   -1.1588006852    0.2251548361
 C    1.0627610454   -0.5979344716   -0.9509819128
 O    1.1831462306   -0.6132812018   -2.1393377997
 H    0.7280152685    2.0238717774    0.0299098797
 H   -0.6893354955    1.7668788372   -1.0005469079
 H   -0.8791935237    1.8187052095    0.7678139253
 H   -2.0045385914   -2.2286226426    1.1070014900
 H   -0.7061516573   -2.6681273443   -0.0600263946
 H    1.0821744835   -0.0637965555    2.0384659109
 H    2.8461687623   -0.6504481837    0.3549762073
 H    2.0620458749   -2.2377620226    0.2029017766