18

 C   -0.0552899600    1.4999724714    0.0729988949
 C   -0.0061054842   -0.0084211026   -0.0697105125
 O   -1.3458221959   -0.5039724200    0.1039790445
 C   -1.4997914659   -1.8262627185    0.0109343358
 N   -0.5065224140   -2.6537149463   -0.2245533118
 O   -1.1019430960   -3.9237913449   -0.2411187764
 C   -2.4241091923   -3.8030669919   -0.0152413076
 C   -3.2149083959   -5.0627565970    0.0009052494
 C   -2.7498767833   -2.4961868024    0.1544725454
 H    0.9479950626    1.9173455951   -0.0529405493
 H   -0.7108105685    1.9413032839   -0.6830087893
 H   -0.4270896869    1.7855491951    1.0610467904
 H    0.3620236173   -0.3153264051   -1.0552238765
 H    0.6445377246   -0.4704168996    0.6814018828
 H   -2.8511775213   -5.7421549053    0.7786627080
 H   -4.2673139632   -4.8456828573    0.1921406742
 H   -3.1345205513   -5.5865506619   -0.9572024425
 H   -3.7145880158   -2.0609637326    0.3502865207