19

 N   -0.6140314324    0.4710081562   -2.1856030132
 C   -0.6379942115   -0.8913598570   -2.2768325779
 O    0.0738583033   -1.5045007304   -3.0541247195
 C   -1.6255869579   -1.5522069744   -1.3534091086
 C   -2.1064672517   -2.9210867082   -1.7227137532
 N   -1.2538218172   -2.7419348075   -0.5674089243
 C    0.0950860558   -3.2502449780   -0.6079986147
 C    0.9267262219   -3.0308554013    0.6262495537
 C    0.3845115957   -4.4052710420    0.3114090754
 H    0.0749707283    0.9658141207   -2.7282965425
 H   -1.0961248705    0.9657672021   -1.4560664410
 H   -2.2995830092   -0.8797065394   -0.8258239992
 H   -3.1383428118   -3.1971653125   -1.5212456663
 H   -1.6653977436   -3.3396845964   -2.6246060531
 H    0.6026486306   -3.2229381793   -1.5677385557
 H    1.9873883571   -2.8443132774    0.5012915927
 H    0.4593765082   -2.4918424458    1.4424259099
 H   -0.4373208946   -4.7642286578    0.9200103069
 H    1.0688190096   -5.1721372317   -0.0336621595