15

 O    0.0542972100    1.4544048993    0.2576358496
 C   -0.0046213215    0.0673823066    0.1030268790
 C    0.2024008698   -0.7434792401    1.3997128613
 C   -0.9451676787   -0.2402667671    2.2930574460
 N   -1.9353214943   -0.8961140214    1.3654256744
 C   -0.8573823840   -1.7670592601    0.8492500710
 C   -1.3630727379   -0.6529323371   -0.0108663840
 C   -2.2435589230   -0.6682887305   -1.1310148625
 N   -2.9110484612   -0.6467441404   -2.0758190870
 H   -0.0860128806    1.8738818189   -0.5976122295
 H    0.6551783316   -0.2966924314   -0.6949451612
 H    1.2049935474   -0.9451076184    1.7671968138
 H   -1.0024633589   -0.7595588924    3.2516604116
 H   -1.0633689067    0.8374247637    2.4221445523
 H   -0.9185176221   -2.8393147395    0.7271298052