15

 O   -0.0152293874   -0.0537001914   -0.3420695859
 C   -0.0393699315    1.1123189841   -0.0993609527
 C   -1.1348758127    2.1563325832    0.2204472851
 N   -0.0463069941    3.1055465523    0.6040393709
 C    1.0370486626    2.2083657522    0.1142075596
 C    2.0752123415    2.1001807183    1.2532323614
 N    1.3731893466    2.7734998168    2.3268838101
 C    0.1258862950    3.2535922764    2.0087068655
 O   -0.6976965533    3.7013836214    2.7697890617
 H   -1.6989708674    2.4852243040   -0.6575475605
 H   -1.8298814940    1.9191804806    1.0314590885
 H    1.4824024687    2.5359602179   -0.8297847549
 H    2.3120996454    1.0558272008    1.4903222357
 H    3.0085284651    2.6091134190    0.9867038179
 H    1.7011498954    2.8165529944    3.2762476876