21

 O    0.3148118341    1.3060594623    0.2312362231
 C    0.1578977262   -0.1053984260    0.2557592180
 C   -1.2872611470   -0.4423995694   -0.1365353495
 C   -1.4176797996   -1.9541485503   -0.3659361719
 C   -2.8135330060   -2.4419397924   -0.7526089428
 O   -3.6852641019   -2.5285744178    0.3561328081
 C   -4.3380797808   -1.3316165678    0.7146324480
 C   -3.4860328407   -0.1820437125    1.1918290414
 C   -2.2490976261    0.1786603594    0.8495541975
 H    1.1709443763    1.5220721964    0.6112407217
 H    0.8492569552   -0.5890199965   -0.4522144031
 H    0.3682983741   -0.5129244490    1.2574714778
 H   -1.4540303684    0.0602109813   -1.1038708667
 H   -0.7163997878   -2.2460715797   -1.1589526316
 H   -1.1215773472   -2.4986113016    0.5394163103
 H   -3.2474836086   -1.8052888137   -1.5422597552
 H   -2.7428904953   -3.4593045101   -1.1530723354
 H   -4.9658883683   -0.9786359371   -0.1267564637
 H   -5.0296907674   -1.6148836420    1.5158319241
 H   -4.0143031516    0.4697833989    1.8873732566
 H   -1.8613737991    1.0928501776    1.2925774734