18

 C   -0.0246224392    1.4726234037   -0.2554512571
 C    0.0701557167   -0.0068049926    0.0139038553
 O    1.3778946648   -0.5784395593    0.1069441246
 C    0.5587962573   -0.5532684732    1.2884940999
 C    1.0328574723    0.1969255651    2.5229729189
 N    1.3315717480   -0.8362589362    3.5425161630
 C    0.3878964998   -1.9356288163    3.2907364766
 C    0.0842131026   -1.9115875763    1.7878731547
 O   -0.4158347153   -2.7758750325    1.1172347199
 H    0.6980695654    2.0352825002    0.3402053099
 H    0.1694619785    1.6772515401   -1.3132271789
 H   -1.0310466102    1.8369901014   -0.0237780128
 H   -0.6311190676   -0.6386509147   -0.5336999320
 H    1.9126052282    0.8106209890    2.3241233147
 H    0.2379479065    0.8514606368    2.9049461536
 H    2.2723368924   -1.1803177940    3.3759499403
 H    0.7800351347   -2.9037875103    3.6087313726
 H   -0.5495946451   -1.7645679112    3.8405126568