18

 C    0.0966468185    1.5185166251    0.1853008136
 C   -0.0590222989    0.0058818166   -0.0368411532
 C    0.7018011563   -0.4813389699   -1.2477600440
 N    0.2557460158   -0.0668234193   -2.4442698661
 C    0.8962718013   -0.4521142203   -3.5415920769
 C    2.0255130188   -1.2775774939   -3.5223471163
 O    2.5953033019   -1.6070650380   -4.7141188206
 C    2.4944581730   -1.7123065247   -2.2872273501
 C    1.8214400833   -1.3066163785   -1.1395409731
 H    1.1411093374    1.7830207669    0.3813992156
 H   -0.2285405791    2.0641629129   -0.7044696665
 H   -0.5040140650    1.8534585638    1.0366231277
 H    0.2759950877   -0.5408498373    0.8514181804
 H   -1.1209097035   -0.2271101033   -0.1765778897
 H    0.5130318846   -0.1049940318   -4.4982464059
 H    3.3562051092   -2.1758884683   -4.5568889955
 H    3.3675500554   -2.3570223065   -2.2224202870
 H    2.1656387133   -1.6326797237   -0.1637060124