25

 C    0.0240158970    1.4665638295   -0.1351510364
 C   -0.0488548689   -0.0474700646    0.0762222346
 C   -1.4633470485   -0.5905426388   -0.0769209458
 O   -1.4421535550   -1.9849946161    0.1338221570
 C   -2.7107269791   -2.5907998616    0.0168653223
 C   -2.5610192311   -4.0890324557    0.2585928104
 C   -3.8800567183   -4.8256884276    0.1746160394
 C   -4.4232062407   -5.2736892013   -1.1612932007
 C   -3.9179325589   -6.2923225101   -0.1689258548
 H    1.0490647672    1.8309895019   -0.0215612859
 H   -0.3182726344    1.7472288089   -1.1374693720
 H   -0.6001611952    2.0018756897    0.5890070230
 H    0.6006618477   -0.5636873566   -0.6400570216
 H    0.3176870524   -0.3107252456    1.0750834983
 H   -2.1409030382   -0.1025986157    0.6465639638
 H   -1.8551215571   -0.3596633371   -1.0837467239
 H   -3.4138546204   -2.1542234980    0.7485312628
 H   -3.1373992371   -2.4062822663   -0.9839465275
 H   -1.8582609454   -4.4946504148   -0.4794237067
 H   -2.1006309097   -4.2385256067    1.2430689352
 H   -4.6245798064   -4.4947432008    0.8953978922
 H   -5.4913038478   -5.2104423549   -1.3377259671
 H   -3.8170992013   -5.0833237937   -2.0413839930
 H   -2.9754876843   -6.7852253473   -0.3845584190
 H   -4.6415151564   -6.9227274765    0.3360288355