14

 O    0.1641323612    1.3355239477    0.0925142401
 C    0.1148324138   -0.0170831018   -0.0485784778
 C    0.6659008336   -0.9335964433   -1.1645215641
 C    0.0872911436   -1.9288236273   -0.1380906196
 C    0.4666988418   -1.0296276513    1.0816433932
 O   -0.8682084930   -1.0606371370    1.6696740238
 C   -1.1160933588   -1.0068294761    0.2417828703
 C   -2.4502855436   -0.9797935421   -0.2825308922
 N   -3.5048553788   -0.9296746137   -0.7553556293
 H   -0.1876621146    1.7550358678   -0.7013707282
 H    0.1632592668   -0.8880944957   -2.1340250379
 H    1.7515621459   -0.9416484385   -1.2864991122
 H    0.0592463723   -3.0142166860   -0.1561793777
 H    1.3313887697   -1.0704143528    1.7396491315