17

 O   -0.0923329711    1.4169559990   -0.0326801813
 C   -0.1006948494    0.0317198537    0.0295575386
 C   -0.4485394604   -0.7484875752    1.2410843615
 C   -1.5653428339   -0.0652257368    2.0244718604
 O   -1.1370777398    1.1796924812    2.5696188506
 C   -2.4850775345   -0.0388625699    0.7592542775
 C   -1.3976302120   -0.7709394258   -0.0203514814
 C   -1.6080060994   -1.8818390166   -0.9496663865
 O   -2.6926452508   -2.2641629520   -1.3253525633
 H   -0.3160631868    1.7456593054    0.8507593786
 H    0.6940833622   -0.4052965922   -0.5717747470
 H    0.1758162877   -1.5485986410    1.6206565584
 H   -1.9721278141   -0.7095057192    2.8112847989
 H   -1.8998918326    1.6238267795    2.9556545783
 H   -3.3957229429   -0.6280202224    0.8719603476
 H   -2.7304778982    0.9569799898    0.3814267208
 H   -0.6697892340   -2.3714976173   -1.3011546218