24

 C   -0.0847371789    1.5284297025   -0.0675260959
 C   -0.0048389581   -0.0102984979    0.0106428040
 C    0.8095865298   -0.3926668885    1.2596423614
 C   -1.4243178419   -0.6032375224    0.1113020007
 C    0.6484874942   -0.5535640389   -1.2537311568
 C    1.5966571202   -1.6884006721   -1.3124865191
 N    2.1163125769   -0.3356076462   -1.6052482118
 C    1.6953304098   -0.0624375064   -3.0228431387
 C    0.1916935034   -0.2275113527   -2.6853872092
 H    0.9134846283    1.9602447707   -0.1878159209
 H   -0.7061555405    1.8651787909   -0.9029084038
 H   -0.5247706213    1.9343321065    0.8493827200
 H    0.3959627275    0.1022673917    2.1441696063
 H    0.7860903641   -1.4707343930    1.4457107430
 H    1.8537020539   -0.0824230195    1.1535512429
 H   -2.0339003016   -0.3330395466   -0.7577587856
 H   -1.3925257381   -1.6961951278    0.1735611469
 H   -1.9359039075   -0.2294750160    1.0047369012
 H    1.9814914482   -2.0954750073   -0.3848334637
 H    1.5308816790   -2.4099666541   -2.1259829774
 H    1.9734091315    0.9547684958   -3.3061920915
 H    2.1269012040   -0.7626902752   -3.7462866055
 H   -0.3663653223   -1.0137326160   -3.2023778519
 H   -0.3643979507    0.7065097425   -2.7739032547