22

 C    0.2190518460    1.5544919469    0.1809322325
 C   -0.1513604068    0.0909326827   -0.0930937331
 C    0.6098666148   -0.4987594809   -1.2687645140
 O    0.3740156493    0.1971273777   -2.4731105866
 C    1.9941230986   -1.0852090530   -1.0800123102
 C    0.8214132971   -1.9876509066   -1.4423392289
 C    0.3122038619   -2.9629768536   -0.3950244359
 C    0.7779932145   -2.5554257590   -2.8505052713
 H    1.2886163154    1.6596023777    0.3951459983
 H   -0.0212479884    2.1909914830   -0.6770079390
 H   -0.3340906118    1.9449937113    1.0401083188
 H    0.0363061976   -0.5000658019    0.8076558997
 H   -1.2262637675    0.0203562574   -0.3016252339
 H    0.8802795854    1.0153166939   -2.4425483379
 H    2.7298544904   -0.8823533446   -1.8521456786
 H    2.4002067243   -1.1454974150   -0.0744016531
 H    0.4317460013   -2.5927604853    0.6257469354
 H   -0.7491878952   -3.1915056538   -0.5481074994
 H    0.8643128001   -3.9075234887   -0.4647007283
 H    1.4223936607   -3.4392684636   -2.9239899749
 H   -0.2402856719   -2.8653832475   -3.1135314792
 H    1.1014800543   -1.8223611270   -3.5894385205