15

 C   -0.9046399601    1.0578697744    0.5407759766
 N   -0.1084255031   -0.1242396859    0.2133115844
 C    1.1082736284    0.0522419188   -0.5476406551
 C    1.1769040866   -0.3652134624    0.8879015177
 C    1.7484909513    0.6188899951    1.8729398853
 N    2.2218913266    0.0467597766    3.0188769838
 O    1.7989770079    1.8216860120    1.6777887953
 H   -0.3108799691    1.9557577886    0.7419922293
 H   -1.5765686062    1.2469558338   -0.3020659138
 H   -1.5198858192    0.8356203162    1.4186685995
 H    1.3003879183   -0.6806435060   -1.3273328906
 H    1.4450535516    1.0670242098   -0.7505734597
 H    1.3457421959   -1.4143408856    1.1252103999
 H    2.0881793970   -0.9263775769    3.2286795668
 H    2.5759399541    0.6538811414    3.7397299307