16

 C   -0.2209378697    1.4690786631   -0.4080642862
 N   -0.0408213374    0.0415505876   -0.2625860713
 C   -0.9413566044   -0.6067386675    0.3398309901
 N   -0.8986792553   -1.9821416172    0.5121375412
 C    0.1863253242   -2.7640398851    0.1534448133
 C    0.3793163687   -3.7362023253   -0.7697436960
 N    1.6736130090   -4.2260092953   -0.6656462043
 C    2.1920864039   -3.5288207826    0.2935854931
 O    1.3651490770   -2.6271436322    0.8567730792
 H    0.6237979742    1.9981129077    0.0487216335
 H   -0.2240829666    1.7368720702   -1.4713328857
 H   -1.1517550841    1.8498832338    0.0450734428
 H   -1.8506808763   -0.1627780370    0.7709451540
 H   -1.5959583952   -2.3859892073    1.1166912796
 H   -0.3198591189   -4.1104210507   -1.5000362638
 H    3.1958425110   -3.5793847721    0.6864366705