18

 C    0.0933227338    1.5521666668    0.0583571880
 C    0.0463563137    0.0559457315   -0.0167504270
 C    0.6176147846   -0.8054418889   -1.1133105321
 N    2.0817856611   -0.9279900447   -0.8824577409
 C    1.1421403239   -1.8160060856   -0.1403346594
 C    0.5715532199   -1.0200666944    0.9911085142
 O    1.0918198091   -0.8538170040    2.2625758035
 C   -0.9051713996   -0.7944664805    0.8253456489
 O   -1.5300310622   -0.1614449539    1.8963478288
 H    1.1142612095    1.9243677144   -0.0742205349
 H   -0.5319289177    2.0019861547   -0.7220878425
 H   -0.2899832342    1.8975743866    1.0218746395
 H    0.1910785729   -1.0080136757   -2.0890757984
 H    2.4589980477   -1.4821498763   -1.6534686734
 H    1.1896563185   -2.8935801492   -0.2457115454
 H    1.9379757881   -0.3980892679    2.1848539594
 H   -1.5437601716   -1.5433193836    0.3575405543
 H   -0.8971009576   -0.1625904491    2.6274213475