15

 N   -0.0211784918    1.2947623854    0.0082588494
 C    0.0683572803   -0.0529925642    0.0002576879
 O    1.0941130336   -0.7055408461   -0.0132210028
 C   -1.3252839847   -0.7288486010    0.0101515553
 O   -2.3291442867   -0.0491877317    0.0231113685
 C   -1.3202502286   -2.2323473958    0.0025798582
 C   -2.7160542525   -2.8354917477    0.0128171841
 O   -2.5593910625   -4.2451857315    0.0042700692
 H    0.8133649806    1.8557414486    0.0034659088
 H   -0.9340518299    1.7201839688    0.0198060602
 H   -0.7503258341   -2.5741373800   -0.8702992096
 H   -0.7338855504   -2.5827865580    0.8610194965
 H   -3.2616624916   -2.4906281201    0.9034560469
 H   -3.2784542907   -2.4817767395   -0.8637946084
 H   -3.4344735709   -4.6435257673    0.0103828459