14

 C   -0.0013724300    1.4348427954    0.0705566183
 C    1.4835405503    1.9289495659   -0.0869771878
 C    2.2254588699    0.6245035228    0.0132925286
 C    1.3262097929   -0.3901076654   -0.0841067175
 N    0.0122551677   -0.0217654624   -0.2665639458
 O    1.8792106291   -1.5886951786   -0.0676120275
 N    3.2986365477   -1.3794882471    0.0515649359
 C    3.4515520389   -0.0684977382    0.0813726769
 H   -0.3338242031    1.5792429590    1.1061459026
 H   -0.6912052606    1.9657986436   -0.5887953819
 H    1.6278770660    2.4140752357   -1.0602291807
 H    1.7307855548    2.6668783963    0.6813741793
 H   -0.6963040928   -0.5864826416    0.1827637354
 H    4.4614581090    0.3101164946    0.1667984943