25

 C    0.1796411377    1.5219797653   -0.0044880021
 C    0.0415161401   -0.0028356694   -0.0080905215
 C   -1.4168175365   -0.4764023609   -0.0134501632
 C   -1.5498281903   -2.0033353824   -0.0274404124
 C   -2.9959260501   -2.5394216705    0.0628707526
 C   -3.8352208910   -2.1821474634   -1.1704095544
 C   -2.9412779824   -4.0363757385    0.3235539277
 C   -3.9103197287   -5.0249976865   -0.1664234761
 O   -2.6266221783   -4.8911503806   -0.7820374906
 H    1.2302693474    1.8288385663    0.0002561372
 H   -0.2921235087    1.9641859053   -0.8891262981
 H   -0.2992020810    1.9612913646    0.8779022932
 H    0.5578787472   -0.4159620219   -0.8846253261
 H    0.5546247611   -0.4200891647    0.8685486147
 H   -1.9312529826   -0.0733648022    0.8708343377
 H   -1.9254640681   -0.0428096340   -0.8836401454
 H   -1.0809962739   -2.4095846267   -0.9335072409
 H   -0.9754744400   -2.4097729697    0.8164915280
 H   -3.4642318920   -2.0888221948    0.9512056458
 H   -3.4712106896   -2.7250282493   -2.0480528057
 H   -4.8901035661   -2.4335278072   -1.0256611221
 H   -3.7861541631   -1.1121104258   -1.3849997769
 H   -2.3970550841   -4.3006826896    1.2338216401
 H   -4.0646111412   -5.9461872947    0.3947765545
 H   -4.7533736759   -4.7137990088   -0.7789283459