14

 O    0.0023157897    1.4373201492    0.0094149778
 C   -0.0026959382    0.0155749944    0.0025897926
 C   -1.3777575090   -0.4657790095    0.0125755890
 C   -2.5042349779   -0.8932700456    0.0206077830
 C   -3.8317314115   -1.3779872063    0.0301206240
 C   -4.9953811442   -0.6695935851    0.0408515966
 O   -6.0322431904   -1.5520073503    0.0472886873
 C   -5.4370739717   -2.7690019427    0.0399844338
 N   -4.1485137886   -2.7444693038    0.0297609793
 H    0.9224330326    1.7202672031    0.0028406935
 H    0.5088010457   -0.3835165687   -0.8888696899
 H    0.5246072596   -0.3920930330    0.8808548985
 H   -5.2388751356    0.3779661712    0.0450022651
 H   -6.0905991304   -3.6270930729    0.0433732696