21

 C   -0.0137715099    1.5055613726   -0.4086334919
 C   -0.0194011222    0.1326072364    0.2718630400
 C   -1.3890437835   -0.5357438182    0.2223481193
 N   -1.7994477275   -1.1093952667   -1.0844709808
 C   -1.6138671064   -2.0239062685    0.0514332866
 C   -0.4283314815   -2.9636794418   -0.0632061902
 C   -2.8371746671   -2.6680637292    0.6761934690
 C   -2.3988211033    0.1921884096    0.9649530568
 N   -3.1882492648    0.8007338830    1.5536610626
 H    0.9860072676    1.9474925448   -0.3748171727
 H   -0.3116673301    1.4128294100   -1.4572157567
 H   -0.7045823567    2.1975005104    0.0829706617
 H    0.7038891534   -0.5218866857   -0.2179036603
 H    0.2878130146    0.2252367306    1.3201959965
 H   -2.7883364709   -0.9371932395   -1.2539121771
 H    0.3775962225   -2.5350803136   -0.6586685477
 H   -0.0404477527   -3.2264191323    0.9264358533
 H   -0.7445289796   -3.8900348246   -0.5550055809
 H   -3.1853317212   -3.4904445456    0.0414008037
 H   -2.5966776217   -3.0876407338    1.6586014974
 H   -3.6585020388   -1.9598739979    0.8069751512