18

 C   -0.0046001534    1.5334227456    0.0306618016
 N   -0.0071163803    0.0920914697    0.0945946964
 C   -1.2439722460   -0.5980682608    0.5036130340
 C   -0.3975908817   -1.5992602207    1.3280094999
 C   -0.8500999052   -1.9296849178    2.7414536616
 O   -0.2209902444   -2.7759879921    0.5575384709
 C    0.7625575849   -0.5705425643    1.1613300272
 H    1.0009746191    1.8940545054   -0.2117813548
 H   -0.6805568043    1.8723730746   -0.7619094831
 H   -0.3205314467    2.0164300242    0.9772654879
 H   -1.9037958400    0.0132832023    1.1409687318
 H   -1.8262907540   -1.0298451474   -0.3165878190
 H   -1.7647389909   -2.5303175294    2.7147333927
 H   -0.0809242750   -2.5084232497    3.2690159138
 H   -1.0422197987   -1.0252417396    3.3256552161
 H    0.4345825170   -3.3248204785    1.0016790488
 H    1.7336422410   -0.9720145855    0.8475653606
 H    0.9031275585    0.0528822743    2.0606158837