15

 O    0.1425673012    1.3086798515    0.1357564235
 C    0.1072641167   -0.0537751378    0.0854336174
 C    0.7795881446   -0.9946408977    1.0872972507
 C    0.0977596099   -1.9507888067    0.0743797953
 C    0.0785734022   -3.3817974027    0.0481445498
 N    0.0510505767   -4.5382626259    0.0090596060
 C   -1.1415836410   -0.9910558754   -0.1202006712
 N   -1.0301677689   -0.8839173396   -1.6055717608
 C    0.3871045282   -0.9927208181   -1.1476314458
 H   -0.3622130078    1.6455281054   -0.6161865364
 H    1.8718660483   -1.0045744794    1.0957678861
 H    0.3748899670   -1.0029383991    2.1018866784
 H   -2.0851927713   -1.0196268105    0.4246005124
 H   -1.3393748987   -1.7441604795   -2.0642423680
 H    1.2478957827   -1.0232642345   -1.8155611174