20

 C    0.3833795636    1.8978203918    0.1607165657
 C   -0.0844110569    0.4455319426    0.2855856898
 C    0.2011851429   -0.3492901808   -0.9999555002
 N    0.5933477159   -0.1693863996    1.4214153122
 C    0.0542081299   -1.1591411310    2.0267493181
 N   -1.1174110302   -1.8091937345    1.7787641907
 C    0.7873857572   -1.7767217934    3.2161888595
 N    2.0049711709   -1.2426897087    3.4273756670
 O    0.2716889390   -2.6632842018    3.8795814856
 H    1.4644402094    1.9317900704   -0.0092713447
 H   -0.1157097884    2.4019348492   -0.6731313454
 H    0.1699391333    2.4524146858    1.0789202127
 H   -1.1786079769    0.4621255941    0.4441443851
 H    1.2785629153   -0.3753231505   -1.1914664070
 H   -0.1514009261   -1.3814925921   -0.9163706683
 H   -0.2911206263    0.1143652811   -1.8610132393
 H   -1.8191539721   -1.3970043318    1.1899214954
 H   -1.4045660124   -2.4498506657    2.5051553160
 H    2.2888688710   -0.4806787456    2.8301280960
 H    2.5542015708   -1.5417694896    4.2139055010