20

 C   -0.2488220529    1.4538442861    0.0988907203
 C    0.0344859245   -0.0381515131   -0.0404029036
 C    1.2852759727   -0.4090897848   -0.9026809441
 C    2.0748228682   -0.7721587248    0.3920900329
 C    0.7550729005   -0.6668378548    1.1624319299
 N    0.5336125734   -0.2935971998    2.5474427292
 C    0.2093053476   -1.6817780527    2.1142934264
 C   -1.1734205034   -2.0672981266    2.1034003295
 C   -2.3252034596   -2.4111069362    2.0596635300
 H    0.6595808306    2.0103825055    0.3562259360
 H   -0.6399675334    1.8643662060   -0.8380461039
 H   -0.9810688557    1.6351993112    0.8906041394
 H   -0.8809524738   -0.5673460930   -0.3215862141
 H    1.1181594172   -1.2706324949   -1.5525180831
 H    1.7023582807    0.4042245763   -1.5008488435
 H    2.5834672289   -1.7396499960    0.4116898802
 H    2.7922749633    0.0021205757    0.6834543340
 H    1.4100394492   -0.3012891054    3.0661544554
 H    0.8999058809   -2.4669633297    2.4173979425
 H   -3.3445819390   -2.7071810790    2.0359200864