17

 O   -0.1588262715    1.4039157403   -0.0012308660
 C   -0.0385888208   -0.0066128362    0.0100212294
 C    0.4201276275   -0.6087407425    1.3887131449
 N   -0.7787119530   -1.3792842436    1.8327128033
 C   -1.1290974363   -2.0589542373    0.5145851544
 C   -1.4344367958   -0.6396912452   -0.0159571963
 C   -1.8642006644   -0.3690611051    1.4610412017
 C   -3.2012818143   -0.8127324194    1.8288628895
 N   -4.2759173431   -1.1340002222    2.1074405405
 H    0.7226687005    1.7876044038    0.0349565225
 H    0.5754754261   -0.3539846661   -0.8315581752
 H    1.2731617457   -1.2868012604    1.3112108694
 H    0.6537523342    0.1819630740    2.1065807116
 H   -0.3121270062   -2.6288065242    0.0640798482
 H   -2.0108992585   -2.6890741946    0.6350735751
 H   -2.0729528200   -0.4232085640   -0.8714525829
 H   -1.6933817002    0.6392849127    1.8435234899