21

 C   -0.0938549974   -1.2850120641   -0.0049370786
 C   -0.0413258398   -0.0838771779    0.0014035348
 C    0.0113449794    1.3729515834    0.0096759902
 C    1.4207034983    1.9759293780   -0.0006894460
 C    2.5238028956    1.2542844962    0.7384060737
 C    2.5082053824    1.2642485199   -0.7718575436
 C    1.4890885138    3.4823251081    0.0086799220
 C    0.5231778374    4.3777177711   -0.7293988177
 C    0.5409732737    4.3673127491    0.7815653881
 H   -0.1475701025   -2.3453768464   -0.0110008799
 H   -0.5473377926    1.7426079269   -0.8602884185
 H   -0.5299842692    1.7320246504    0.8949156889
 H    3.2633620441    1.8582478253    1.2532689313
 H    2.2803132027    0.3205641715    1.2325627481
 H    2.2543911481    0.3370912149   -1.2731330165
 H    3.2370827679    1.8749943715   -1.2939025016
 H    2.5179658595    3.8338451517   -0.0009960403
 H    0.9239010051    5.2416421316   -1.2482032953
 H   -0.3319421592    3.9307983589   -1.2240461137
 H   -0.3022963418    3.9134298550    1.2900399879
 H    0.9539310643    5.2240815651    1.3026385670