20

 C    0.0678628975    1.5545377115   -0.0428384881
 C   -0.0414768771    0.0479129750   -0.0371848055
 C   -1.2268764525   -0.5599650036   -0.1861539068
 C   -1.4821311494   -2.0436448360   -0.1318669272
 C   -0.6801072714   -2.8989086682   -1.1110917417
 N   -0.0336278408   -2.2513352304   -2.2493541848
 C    0.8101639850   -2.8019021996   -1.1533869966
 C    1.5856070013   -1.8753009489   -0.2962470807
 C    1.2244620810   -0.6677949025    0.1644317511
 H    0.7026864852    1.9030420985   -0.8665947876
 H   -0.9114638240    2.0288115669   -0.1439884570
 H    0.5291126138    1.9186801640    0.8843469339
 H   -2.1008597056    0.0654526333   -0.3495961373
 H   -1.2654754718   -2.4271062601    0.8767922399
 H   -2.5488020015   -2.2253839367   -0.3029975037
 H   -1.0988669661   -3.8928776042   -1.2717186533
 H   -0.0047716738   -2.8823672594   -3.0457393759
 H    1.3344582350   -3.7279697860   -1.3779097115
 H    2.5765587447   -2.2351111679   -0.0293483542
 H    1.9746441406   -0.1173165857    0.7315959470