15

 N   -0.0799123848    1.2804482691   -0.0963378690
 C   -0.0280406032    0.0270011116   -0.0180524961
 O    1.1054266117   -0.7546865212    0.0372266195
 C    0.6401922590   -2.1378588110    0.1022958210
 C   -0.6056087031   -2.1031703074   -0.7991013426
 C   -1.1843498576   -0.9523373833    0.0413645813
 O   -1.1580411493   -1.5130451973    1.3899777434
 C   -0.0188993402   -2.2852381849    1.4600745442
 N    0.3797333981   -2.9584752527    2.4438391413
 H    0.8576009585    1.6873006935   -0.1099394177
 H    1.4672649695   -2.8070371692   -0.1082860431
 H   -0.3788694269   -1.8292460571   -1.8306824396
 H   -1.2106823510   -3.0101349898   -0.7554471539
 H   -2.1701100700   -0.5486801573   -0.1624276089
 H   -0.2596627708   -2.8665098031    3.2358998103