18

 O    0.1501437992    1.2762783780   -0.4215748712
 C    0.0174721476    0.0524255224    0.2822103222
 C   -1.3874160138   -0.4871624644    0.1886449337
 C   -2.5263304460    0.2250869762    0.8924547600
 C   -3.6348103912   -0.8288221182    1.0436076743
 O   -4.7723292410   -0.6081862349    1.3620435907
 C   -3.0497866981   -2.2191320612    0.7314320226
 C   -1.7124361947   -1.9444550079    0.0803643174
 N   -1.7088488393   -1.0926696900   -1.1204869087
 H   -0.0726735415    1.0836980121   -1.3399242270
 H    0.7203557776   -0.7062710992   -0.0923511013
 H    0.2772084791    0.2695983993    1.3241585851
 H   -2.2287097753    0.5643284279    1.8935212967
 H   -2.8981553657    1.1069156493    0.3621880454
 H   -2.9328583140   -2.7675951425    1.6752488565
 H   -3.7440431608   -2.7970864234    0.1129096469
 H   -0.9413551182   -2.7086626261    0.1016331753
 H   -2.6588270639   -0.8711848874   -1.4149099386