21

 C    0.0799216694    1.5408542836    0.0552514522
 C   -0.0030089103    0.0133670738   -0.0285171144
 C   -1.4393765175   -0.5480806149   -0.0351061713
 C   -2.2312979910   -0.1039537888   -1.2737565561
 C   -1.4156467388   -2.1040565517    0.0712041176
 C   -0.7093824939   -2.5354934545    1.3490095686
 O    0.2487246393   -3.2601233356    1.3921042010
 C   -2.8385227199   -2.6452374754    0.1106968351
 O   -3.3010323709   -3.4152494323   -0.6879176428
 H    1.1224025387    1.8635913442    0.1328747745
 H   -0.3474733437    2.0282439605   -0.8257408125
 H   -0.4501744361    1.9191175549    0.9366726754
 H    0.5166157187   -0.3383796381   -0.9295247810
 H    0.5487029147   -0.4130238445    0.8176652036
 H   -1.9555606112   -0.1670586701    0.8596598154
 H   -3.2535450811   -0.4932035514   -1.2679216503
 H   -2.2957122972    0.9854117069   -1.3285120844
 H   -1.7492941007   -0.4608879832   -2.1908065891
 H   -0.8984794970   -2.5515361760   -0.7818075553
 H   -1.1570196940   -2.1165968000    2.2809049549
 H   -3.4503005175   -2.2584123972    0.9591365989