17

 C   -0.5940191973    1.6528610613    0.6226001333
 C   -0.4704250168    0.2838847650   -0.0643712682
 C    0.8556143275   -0.3072649049    0.1067719671
 C    1.9378987947   -0.7970957841    0.2890057585
 C   -1.4945226424   -0.7205625670    0.5090233341
 O   -1.9882230515   -0.5940967289    1.6022721353
 C   -1.8639582932   -1.8996557535   -0.3501673564
 C   -2.4953623636   -1.6876665261   -1.6698785360
 O   -1.1460809294   -2.1156393785   -1.5616570416
 H    0.1713353621    2.3340670688    0.2445658737
 H   -1.5798092685    2.0860840423    0.4316885352
 H   -0.4735600130    1.5448353106    1.7015925490
 H   -0.6555743637    0.3796902607   -1.1415373779
 H    2.8980533440   -1.2279347155    0.4308666353
 H   -2.1351753009   -2.7908774394    0.2129161071
 H   -3.2040522171   -2.4297369915   -2.0326948969
 H   -2.6421161408   -0.6758903691   -2.0454281215