15

 C   -0.0796667892   -1.2102408141   -0.1120426250
 C   -0.0433341215   -0.0119982718   -0.0363035416
 C   -0.0420747925    1.4380332225    0.0401346309
 C   -0.9964495776    1.9722693341   -0.9356063524
 N   -1.7686171684    2.3816958069   -1.6916093917
 C    0.0413834322    2.1472437704    1.4370617129
 C    1.4909015106    1.6256567160    1.4672372874
 N    1.3691144971    2.1389766809    0.0134164829
 C    0.6395790801    3.3369663903    0.6630991087
 H   -0.1070083464   -2.2701459915   -0.1836940142
 H   -0.7287588874    2.1281972985    2.2130966119
 H    2.2143011007    2.1981280077    2.0491850917
 H    1.6633396449    0.5527350200    1.5453800472
 H    0.0039727531    3.8978326526   -0.0229235902
 H    1.3209783143    3.9926358275    1.2063812716