21

 C   -0.1766402349    1.3710545724   -0.2566608692
 C    1.2004038492    0.9522168243    0.1932858880
 C    0.1188585665   -0.0831667057    0.0128789466
 C   -0.4258939047   -0.8217251762    1.2163362862
 O   -0.7358861162    0.0756520757    2.3136810610
 C   -2.1010444082   -0.2761195673    2.6105339206
 C   -2.0826812504   -1.8243261810    2.5800284754
 C   -1.7869610495   -1.5341518434    1.0730223049
 C   -2.7778032637   -0.3366791990    1.2191475992
 H   -0.7810547998    1.8996773864    0.4695855461
 H   -0.3169567816    1.6840188106   -1.2854774885
 H    2.0157147079    0.9777472122   -0.5212259289
 H    1.4798692471    1.2028268984    1.2107797261
 H    0.2201251905   -0.7250581835   -0.8594328068
 H    0.3377134687   -1.5367876571    1.5569139558
 H   -2.4578906998    0.3230353560    3.4467153856
 H   -1.3140886210   -2.3259041794    3.1735039025
 H   -3.0625168861   -2.2760517894    2.7432024188
 H   -1.8771272428   -2.2909530431    0.2946173123
 H   -3.8179298495   -0.6640560035    1.2670634460
 H   -2.6687515316    0.5221087626    0.5578180484