17

 O    0.0043518369    1.4307043031   -0.0742511481
 C    0.0191499364    0.0183874822    0.0072031852
 C    0.6225425530   -0.5484124787    1.3376195356
 C   -0.5543086070   -1.3592529669    1.9723766568
 C   -1.6567602755   -0.3874711913    2.3272280838
 C   -2.1669692461    0.1149610153    1.1913876577
 C   -1.4438527849   -0.5076308251    0.0178821568
 C   -1.1891173478   -1.8981410776    0.6632016981
 O   -1.4132004051   -3.0046857149    0.2800300578
 H    0.9164004553    1.7387253266   -0.0785786051
 H    0.5446093891   -0.4091493084   -0.8588024278
 H    1.4842206494   -1.1940119987    1.1431189223
 H    0.9369970522    0.2702426596    1.9896382585
 H   -0.2713052208   -2.0954785840    2.7222113581
 H   -1.9481648816   -0.1424696935    3.3403522022
 H   -2.9530461658    0.8511773479    1.0950516291
 H   -1.9443392379   -0.4923028056   -0.9475627212