17

 C   -0.1727606388    1.5005373172   -0.0206106135
 C    0.0981564605    0.0388095448    0.0143142496
 C    0.6468999890   -0.9877798834   -0.8774450643
 C    1.4062461977   -1.7114601129    0.2358688830
 C    0.4034063809   -1.0373109622    1.2002391933
 O    0.7108684423   -0.8519279068    2.5195840929
 C   -0.9218685784   -1.5786588385    0.7589320418
 N   -1.8670123876   -2.0688112410    1.4283204200
 N   -0.8443485299   -1.0170486634   -0.5740511025
 H    0.7174213308    2.0654036468    0.2744283656
 H   -0.4653309458    1.8121387037   -1.0275576904
 H   -0.9830160832    1.7630538432    0.6677238078
 H    0.8913072408   -0.9229057813   -1.9295984121
 H    1.4386106328   -2.8055021775    0.2370365377
 H    2.4116189198   -1.2990382950    0.3512505466
 H   -0.1060688203   -0.9705775169    3.0229815883
 H   -2.7011279808   -2.1972452671    0.8513349762