23

 C    0.2097102347    1.6253401510   -0.0932408887
 C   -0.1503212216    0.1405376246    0.0920335879
 C    0.6121556095   -0.5274402259    1.2151009145
 C   -0.0189956613   -0.9276005827    2.3238472704
 C    0.6023918392   -1.5666626232    3.5436434273
 C    1.5378671939   -2.7505138520    3.2724636488
 O    2.7677313755   -2.3919546908    2.6734835383
 C    2.6931519698   -2.0628557868    1.3010924345
 C    2.1099039402   -0.6737759278    1.0106345576
 H    1.2747598882    1.7605346465   -0.3078500025
 H   -0.3530713786    2.0612040043   -0.9247096108
 H   -0.0224677077    2.1956211748    0.8117522549
 H   -1.2261678727    0.0517084729    0.2776012118
 H    0.0498742768   -0.3898990297   -0.8501375533
 H   -1.0931079637   -0.7590976259    2.3782814647
 H    1.1678564746   -0.8199418828    4.1202579346
 H   -0.1953484731   -1.9215119363    4.2067660627
 H    1.8059378851   -3.2229592371    4.2237940045
 H    1.0178544978   -3.5010085595    2.6545950363
 H    3.7268965433   -2.0958635765    0.9398479488
 H    2.1189885539   -2.8292773008    0.7547199067
 H    2.3592192344   -0.4271248827   -0.0286160794
 H    2.6520613218    0.0511937163    1.6337766005