16

 C   -0.1080935978    1.5388151946   -0.1254134635
 C    1.4559358312    1.6915319925    0.0330651061
 N    2.0098596422    2.1656703874    1.3146219661
 C    2.4668422623    0.9891904881    2.1410974020
 C    1.6396827345   -0.1165175139    1.5241998569
 C    1.3640796126    0.2226278081    0.2437348688
 N   -0.0074972649   -0.0183014488   -0.0073099022
 C   -0.3836527144   -0.7138768425    1.1543704224
 N    0.5644681979   -0.8292539218    2.0556520976
 H   -0.6652781375    1.9487485728    0.7152133014
 H   -0.5352901398    1.8226858328   -1.0869296187
 H    1.9486817215    2.1290970258   -0.8395224117
 H    2.7253779751    2.8725356456    1.2017618449
 H    3.5522825347    0.8276699692    2.0756584042
 H    2.2109426783    1.1377748497    3.1948057303
 H   -1.3573748458   -1.1792026595    1.2456914953