21

 C   -0.2769198896    1.4014074024    0.0723664666
 C    0.1182229385   -0.0723822818    0.0236967749
 C    0.9152602800   -0.4934975265   -1.2249223249
 C    1.4799930771   -1.8773324786   -0.8552724365
 C    1.6538681384   -1.8787799417    0.6925627066
 O    2.9859509262   -2.0769110046    1.1452937736
 C    1.0469617620   -0.5195325904    1.1624853303
 C    0.8638158445   -2.9972791655    1.3617026823
 O   -0.1836834347   -3.4313937397    0.9576959138
 H    0.6084011148    2.0473676012    0.0327638545
 H   -0.9198644777    1.6659111637   -0.7736237648
 H   -0.8230533941    1.6402532511    0.9909958210
 H   -0.7899831431   -0.6882652347    0.0681484779
 H    0.3070678037   -0.5112577277   -2.1338399113
 H    1.7271101186    0.2270758321   -1.3952583448
 H    0.7662743643   -2.6601727171   -1.1268395683
 H    2.4326693361   -2.1113223690   -1.3368758841
 H    3.5155436688   -1.3263573577    0.8583101911
 H    1.8759782347    0.1943948892    1.2719833204
 H    0.5534657249   -0.5817564236    2.1377860296
 H    1.3340252764   -3.3594819511    2.3019436620