21

 C    0.1619908674    1.4422168935   -0.3458624978
 C   -0.0538446000    0.0144712374    0.0800080525
 C   -1.4368382229   -0.4385458591    0.6178846888
 C   -0.7315564649   -1.1229243406    1.8314807343
 C   -1.0391344800   -2.5817861917    2.1060995045
 O   -2.3699121833   -2.6452940912    2.6018997370
 C    0.6594979282   -0.7300340427    1.2567598559
 C    1.2334620181   -1.6230017366    0.1447193652
 O    0.4774615780   -0.9398446855   -0.8788156410
 H    1.2201904930    1.6361253558   -0.5456648684
 H   -0.4004067536    1.6486299479   -1.2638269747
 H   -0.1835365956    2.1370713741    0.4264551262
 H   -2.1176958065    0.3715200167    0.8904697600
 H   -1.9505565926   -1.1188403122   -0.0653069094
 H   -0.9242441728   -0.5662827819    2.7535537125
 H   -0.9367541568   -3.1740029279    1.1837123272
 H   -0.3190705203   -2.9850292888    2.8384457156
 H   -2.6174266642   -3.5708176787    2.6837882316
 H    1.3719323809   -0.2647268881    1.9382089673
 H    2.3137914087   -1.5001680932   -0.0095708496
 H    1.0108580789   -2.6962508773    0.1831851323