21

 C    0.0511012926    1.5033355470   -0.0365092516
 C    1.3235323096    0.6718481825   -0.0561776412
 C   -0.0319088925    0.0175106827    0.0677880790
 C   -0.4378167705   -0.6829425247    1.3451167951
 C    0.1525937691   -2.1040882609    1.3666345273
 C    0.0409825189   -2.7953354195    0.0172426998
 C   -1.2763423040   -2.9583587844   -0.7131392183
 C   -0.2520675464   -1.9705430334   -1.2094555503
 O   -0.5584078908   -0.6051647601   -1.0795625606
 H   -0.1708699474    2.0974015047    0.8435770877
 H   -0.2689139217    1.9410954663   -0.9751386858
 H    1.8354103046    0.5747465312   -1.0066354924
 H    1.9745636214    0.6987815949    0.8117457740
 H   -0.0933858334   -0.1195333357    2.2180414691
 H   -1.5334075990   -0.7129593117    1.3935529448
 H    1.2170163006   -2.0311449731    1.6213091493
 H   -0.3174773763   -2.7063047674    2.1530806484
 H    0.7502490958   -3.6055861347   -0.1266180927
 H   -1.4461916036   -3.8717932401   -1.2728268960
 H   -2.1667569889   -2.5282800178   -0.2667805553
 H    0.2818580718   -2.1859876360   -2.1316375704