21

 C   -0.7219267997    1.3323472620   -0.1236571458
 C   -0.0970811648   -0.0526030427   -0.0388476271
 C    1.1227311873   -0.3621742594   -0.9739389036
 O    1.6699818301    0.7297854767   -1.6703555803
 C    1.9624536561   -0.7811525817    0.2787120687
 O    3.0244854286    0.1200643919    0.5593350512
 C    2.5294342447    1.2096553389    1.3538544501
 C    1.3171637423    0.6665741065    2.1235427779
 C    0.7684119726   -0.4414504947    1.2121843967
 H    0.0248197826    2.1273157317   -0.0556686249
 H   -1.2371506718    1.4597441345   -1.0808839919
 H   -1.4573427882    1.4805478693    0.6746628382
 H   -0.8794240711   -0.8032387250   -0.1910309492
 H    0.9280579577   -1.1846608059   -1.6737573614
 H    2.5510334259    0.8614719947   -1.2913100529
 H    2.3716062492   -1.7936842980    0.2756401885
 H    3.3466232796    1.5403732370    2.0006861979
 H    2.2424570161    2.0458723754    0.7029136105
 H    1.6372857692    0.2318518367    3.0752349113
 H    0.5870407461    1.4496959123    2.3428113653
 H    0.3582207375   -1.2705846400    1.7907403408