13

 N   -0.1393686029    1.3077302292    0.3711983218
 C   -0.0264593541    0.1497093775   -0.1347010244
 O    1.0249455976   -0.1614668949   -0.9679451315
 C    1.4478571174   -1.4859565404   -1.1350271333
 O    2.4982551534   -1.8398520937   -0.7011146815
 N    0.6362035470   -2.2509479279   -1.9652170163
 C   -0.5755835240   -2.5005119052   -1.6503250989
 C   -1.3114096412   -2.0047722827   -0.4893553993
 C   -1.0592889483   -0.8531033547    0.1569320350
 H    0.6438635397    1.9000380680    0.0897035347
 H   -1.1312183528   -3.1498601340   -2.3301757339
 H   -2.1845206939   -2.5804681752   -0.1960384277
 H   -1.7197739178   -0.5335619061    0.9552117753