16

 O    0.0131236625    1.2762785936    0.5043231300
 C    0.0507191734    0.0429409768   -0.1846045635
 C   -1.3182177374   -0.6070680236   -0.2264779367
 C   -1.5825946378   -2.0665981580   -0.1211860292
 C   -0.5047295511   -3.0213096263    0.3731664678
 O   -0.1505130577   -2.5285669733    1.6727297843
 C   -0.9082913163   -1.4432280402    2.0005788355
 O   -0.7189609179   -0.7916990872    2.9847683901
 N   -1.9130428590   -1.1957091887    1.0169674522
 H   -0.1860996556    1.0895012260    1.4306455425
 H    0.3580980448    0.2698936663   -1.2110467286
 H    0.8051314719   -0.6358628502    0.2370757100
 H   -2.0564920586   -0.0170752271   -0.7638394185
 H   -2.4219390464   -2.4953244426   -0.6593893258
 H   -0.9012603960   -4.0356315219    0.4764119260
 H    0.3971316911   -3.0557524037   -0.2449177960