15

 O    0.2335293636    0.8873849551    0.9735655242
 C   -0.0617874724    0.1638317843   -0.2164980415
 C   -1.4081623498   -0.3841268664   -0.1422864586
 C   -2.5223780374   -0.8449489748   -0.1079721002
 C   -3.8195664689   -1.4031543623   -0.0538864178
 C   -4.9881364506   -0.8177626084   -0.4608288410
 O   -6.0365224545   -1.6463728037   -0.2581075129
 C   -5.5421722417   -2.7917530657    0.2908194855
 C   -4.1993986148   -2.7067601623    0.4406781264
 H    1.1283487390    1.2314081806    0.8838096676
 H    0.0121217745    0.8126297083   -1.1048232512
 H    0.6525791268   -0.6623124374   -0.3670396994
 H   -5.2114630848    0.1432415059   -0.8925777104
 H   -6.2698556051   -3.5547452218    0.5110225392
 H   -3.5381348339   -3.4543842615    0.8475179201