13

 O    0.0291614427    1.3412112974   -0.0156184654
 C    0.0381991436   -0.0124061417   -0.0187871195
 C    0.0066429939   -0.8047217583   -1.1288163630
 N    0.0303059354   -2.1342516825   -0.6850787521
 C    0.0752008670   -2.1753231602    0.6583728970
 O    0.1040607274   -3.3624683298    1.2844678567
 C    0.0824850435   -0.8701838940    1.1428295642
 C    0.1246505323   -0.4825417716    2.4922670427
 N    0.1594603251   -0.1532254239    3.6059887009
 H    0.0577001459    1.6534703110    0.8956123455
 H   -0.0297852484   -0.5594064955   -2.1746067710
 H    0.0164842328   -2.9507937776   -1.2711989671
 H    0.1342994088   -3.2126467733    2.2371677210