18

 O   -0.4461537397    1.8158399814    1.1469717452
 N   -0.1212932723    0.4523730992    1.2130017466
 C   -0.8923401763   -0.2728108369    0.4903550434
 C   -0.5772199658   -1.7579105920    0.5755929241
 C   -0.1904484339   -2.3828601372   -0.6878548117
 C    0.1376421136   -2.9142239203   -1.7150871511
 C   -2.0390318404    0.2501065784   -0.2885350895
 C   -2.1303717428    0.1076699667   -1.8029442181
 C   -3.0806056364   -0.6464618621   -0.9239936189
 H    0.1881340842    2.2008111849    1.7604046401
 H    0.2329916570   -1.8709902123    1.3025275473
 H   -1.4500238865   -2.2849059167    0.9837753405
 H    0.4307627987   -3.3832176877   -2.6216352370
 H   -2.3948261348    1.1981795916    0.0945960176
 H   -2.4904164889    0.9718609239   -2.3495903317
 H   -1.3530136526   -0.4581454562   -2.3001721164
 H   -2.9471582806   -1.7202035649   -0.8581527407
 H   -4.1131356723   -0.3209515797   -0.8636695397