17

 O   -0.1174279929    1.1247990293    1.2741008054
 C   -0.0349444783    0.1678793124    0.2510235562
 C    0.9590368123   -0.9785361365    0.5806874912
 C    0.1159696875   -2.0107416905    1.3048813292
 N   -0.7883042977   -1.3972221153    2.3065658373
 C   -1.3122781173   -1.7783349466    0.9799784870
 C   -1.3966110278   -0.5907609445    0.0237582000
 C   -2.5777553127    0.2456319101    0.2101444768
 N   -3.5379050151    0.8739015229    0.3455551341
 H   -0.3758849708    0.6365438363    2.0721447808
 H    0.2515518551    0.7097196792   -0.6527885127
 H    1.3699605591   -1.4200565203   -0.3348532981
 H    1.7886180258   -0.5906798764    1.1772123886
 H    0.4982874407   -3.0085861379    1.4912884986
 H   -1.0708915110   -2.0799736315    3.0033665649
 H   -2.0397111204   -2.5787711427    0.9076785540
 H   -1.4188742065   -0.9836645980   -1.0009384832