18

 C   -0.0545508042    1.4111894762    0.8774102334
 O   -0.0484020460    0.0393693528    1.1940530794
 C    0.8629211234   -0.7084124186    0.4193963129
 C    0.7714124303   -2.1774562379    0.7923506706
 C    1.6291837017   -3.0797048220   -0.0669549560
 C    0.4810563359   -2.5349207443    2.2023347247
 N   -0.5490996169   -2.7149397160    1.1537865146
 H   -0.3280114834    1.5843627635   -0.1750186599
 H   -0.7960440409    1.8916407354    1.5200077290
 H    0.9276688138    1.8746192313    1.0578647389
 H    0.6358345984   -0.5862947602   -0.6549487652
 H    1.8932212098   -0.3437251201    0.5742017715
 H    2.6922551480   -2.8318109416    0.0337537670
 H    1.4876427340   -4.1224028536    0.2259423056
 H    1.3588720903   -2.9893969279   -1.1254987851
 H    0.8794701064   -3.4574804100    2.6165567300
 H    0.3450365851   -1.7268153072    2.9137206007
 H   -1.1994375658   -1.9342323998    1.2224281879