17

 C   -0.1193502122    1.3549727711    0.3490758396
 O   -0.2510702103   -0.0711664638    0.4250852454
 C   -1.3272371221   -0.5811301911   -0.2041104516
 O   -2.1342579341    0.0846502741   -0.8017583555
 C   -1.3807981675   -2.0885009974   -0.0962766555
 C   -0.8343774159   -2.8307730193    1.1772106267
 C   -2.2548882757   -3.3686145033    1.3987289644
 O   -3.1149487378   -2.2305020202    1.5318062598
 C   -2.7726589084   -2.6650575246    0.2142608744
 H    0.7882880382    1.5991359063    0.9009804751
 H   -0.0352991239    1.6790616755   -0.6912843139
 H   -0.9864510284    1.8438486024    0.7996403133
 H   -0.9574875992   -2.5101966704   -1.0134994562
 H   -0.1041251277   -3.6027547034    0.9259683489
 H   -0.4456988624   -2.1989861657    1.9764428772
 H   -2.5748497494   -4.2907134425    1.8686214305
 H   -3.5824456831   -2.8915727578   -0.4675529225