18

 O   -0.0027867486   -0.0630537184    0.1430318081
 C    0.0182389066    1.1476383999    0.0462812678
 N    1.1478417625    1.9031534874   -0.0250848274
 C    1.1870771711    3.3902526571   -0.0770327112
 C    2.6549496954    3.6664956088   -0.4525956824
 C    3.7523639426    4.2648746799    0.4976173384
 C    4.6311577435    2.9805809977    0.2440451305
 C    3.3436505481    2.3417325627   -0.2171742217
 C    2.4652467454    1.3918987715    0.0968443577
 H   -0.8972557953    1.7707380158    0.0104246548
 H    0.4725473198    3.7633593608   -0.8139181702
 H    0.9224789478    3.8079292551    0.9037997365
 H    2.7636114016    4.0602567294   -1.4692955368
 H    4.1858564623    5.2255512571    0.2090761290
 H    3.4082577397    4.3115156847    1.5338551985
 H    5.3521160205    3.1483684057   -0.5631176829
 H    5.1488572708    2.5321113677    1.0941857425
 H    2.5831438762    0.3854183771    0.4689093787