20

 C    0.0323033436    1.4606172755    0.5411172145
 C    0.0990338255    0.0599572311   -0.0132994307
 C   -1.1111323709   -0.6783303827   -0.3892942272
 O   -0.2716171694   -0.0982230400   -1.3888105417
 N    1.2731970958    2.1677875142    0.2535153838
 C    1.5787895684    2.7335462600   -1.0439933760
 C    0.3507220655    3.3464438634   -1.7410859764
 C    0.1335889347    4.2605666002   -0.4923715061
 C    1.3647566343    3.6097663350    0.1702429264
 H   -0.8741650601    1.9441029777    0.1488870966
 H   -0.0699968847    1.4136503964    1.6330119467
 H    0.9857373448   -0.5064315031    0.2719923008
 H   -1.1145512925   -1.7666825536   -0.3527275200
 H   -2.0871297511   -0.2092189544   -0.2688779258
 H    2.4984260065    2.4241764734   -1.5286326027
 H    0.6214053701    3.9227008099   -2.6281748030
 H   -0.4391451369    2.6397202156   -2.0076150773
 H    0.3055364262    5.3144200040   -0.7217158589
 H   -0.8167024698    4.1771307126    0.0443370483
 H    2.0837053702    4.1145485146    0.8073520186