18

 N    0.0119441644   -1.1725715904   -0.1082161141
 C   -0.0339208812   -0.0190760841   -0.0522704981
 C   -0.0310038362    1.4388450225    0.0360682244
 C   -0.1594361956    2.1371344171    1.4197196535
 N    0.7430449581    3.2265210463    0.9061528472
 C    1.3309022797    2.1962136938   -0.0189294241
 C   -0.0616789689    4.1634865836    0.0933342126
 C   -1.2472878488    3.4575430190   -0.6266185484
 N   -1.0117397561    2.0212298504   -0.8833172116
 H   -1.1549585326    2.4381879258    1.7494179633
 H    0.3399739197    1.5764586941    2.2122706604
 H    2.1527100941    1.6686045487    0.4738842194
 H    1.6511085884    2.5635043682   -0.9979709764
 H   -0.4483321000    4.9541666993    0.7456450709
 H    0.6196774327    4.6389080634   -0.6200868297
 H   -2.1481794775    3.5510132721   -0.0101331312
 H   -1.4786383998    3.9475364802   -1.5757678737
 H   -0.6955870505    1.8725993801   -1.8355180643