23

 O   -0.0947610028    1.4694498527   -0.0743328922
 C    0.0236195022    0.0567248589    0.0198635728
 C   -1.3808200409   -0.5332426499   -0.0114621841
 C   -1.4120703709   -2.0621322994    0.0232626427
 C   -0.8573767449   -2.7113477539    1.3206318865
 C   -1.5575407654   -4.0672612957    1.4273256488
 C   -2.9437624616   -4.0897456252    2.0195605999
 C   -2.7753319995   -4.0379561055    0.5224349726
 C   -2.8327326497   -2.6628859299   -0.1432819357
 H    0.7879663677    1.8482188572   -0.0322819096
 H    0.6141540556   -0.3493353464   -0.8187239989
 H    0.5371014581   -0.2354306918    0.9496377885
 H   -1.9491209918   -0.1308302462    0.8374390484
 H   -1.8784353908   -0.1698712580   -0.9191770230
 H   -0.8046540530   -2.4423635448   -0.8104145084
 H    0.2301441738   -2.8247232132    1.2845030807
 H   -1.0786927555   -2.0798696539    2.1917723224
 H   -0.9500470850   -4.9610620403    1.5154878359
 H   -3.2917535934   -5.0188937084    2.4593334626
 H   -3.3010572907   -3.1975248923    2.5275887396
 H   -3.0608530053   -4.9098451324   -0.0553831052
 H   -3.5799916083   -2.0190546775    0.3388262247
 H   -3.1137600180   -2.7320803941   -1.1984493590