18

 O    0.6590265716    0.3007321519   -0.6382204644
 C   -0.2220466845   -0.4568658948    0.1728868487
 C   -1.5944943694    0.2085353658    0.3032205559
 N   -2.2392980703    0.3834879945   -0.9927092350
 C   -2.9905152039   -0.6089247259   -1.5422029084
 N   -3.0426260628   -1.7893169781   -1.0515166720
 N   -3.6991251701   -0.2250864783   -2.7199017633
 C   -3.8145310110    1.0078923654   -3.3010478643
 O   -3.3033573401    2.0386997380   -2.9128938205
 H    0.2248192159    0.3975051615   -1.4932938960
 H   -0.3530904421   -1.4777481618   -0.2110099657
 H    0.2432504094   -0.5230110586    1.1619849055
 H   -2.2384408343   -0.3914535817    0.9550727051
 H   -1.4721119085    1.2035236574    0.7411013205
 H   -2.3769002365    1.3101987634   -1.3726149236
 H   -3.6509911759   -2.4043677412   -1.5847221700
 H   -4.2020974246   -0.9769053336   -3.1660804703
 H   -4.4514371130    0.9675982664   -4.2035572924