18

 C   -0.0572970798    1.5610288579   -0.0634583412
 C    0.0196272329    0.0381857275    0.0158795150
 O    0.7872510251   -0.4696487920   -1.0950925439
 C    1.8323701494   -1.2218361435   -0.6301311795
 N    2.6949604407   -1.8141084575   -1.3460353854
 C    1.7811904470   -1.2250340906    0.8411673094
 C    2.7892655305   -1.9509978410    1.6628888361
 O    2.4847040804   -1.7646499021    3.0338090598
 C    0.7296777747   -0.5008127392    1.2258126439
 H    0.9417886397    1.9985620701    0.0133229187
 H   -0.5059189117    1.8684825797   -1.0117363500
 H   -0.6735803957    1.9496371379    0.7533073141
 H   -0.9931449938   -0.3819859353   -0.0697195472
 H    2.5123405479   -1.6570154845   -2.3380873807
 H    2.7796364157   -3.0147211578    1.3765726549
 H    3.7926835855   -1.5756136048    1.4062516513
 H    3.1345851620   -2.2488450801    3.5504878808
 H    0.4143922096   -0.3088862847    2.2416267339