23

 C   -0.0022767964    1.4895097522    0.1391489137
 C   -0.1043299929   -0.0154964200   -0.1199600230
 C    0.8518080985   -0.4833981475   -1.2092749409
 O    0.6963272939   -1.8812551829   -1.3731336715
 C    1.4210447190   -2.4569832292   -2.4518475098
 C    2.9082335201   -2.6233543838   -2.1295806672
 C    0.7512798093   -3.8085178524   -2.7381700767
 C   -0.6722403783   -3.6657151392   -3.2316009445
 O   -1.1338830085   -4.2776454440   -4.1617201755
 H    1.0066903659    1.7727591069    0.4587664510
 H   -0.2389467721    2.0674936669   -0.7610040802
 H   -0.6975484231    1.8001056254    0.9240720039
 H    0.1138586816   -0.5749616380    0.7969122498
 H   -1.1258615432   -0.2832916158   -0.4133099283
 H    0.6357273153    0.0352934441   -2.1590389851
 H    1.8874619892   -0.2303282971   -0.9321627222
 H    1.3190795598   -1.8087854963   -3.3395232706
 H    3.4351881584   -3.0782873065   -2.9739809417
 H    3.3818800912   -1.6598660057   -1.9225045401
 H    3.0359716615   -3.2657737609   -1.2524783187
 H    1.3192773310   -4.3908881424   -3.4682653365
 H    0.7257885667   -4.3700982057   -1.7935467083
 H   -1.2836337671   -2.9360995282   -2.6587523076