16

 C   -0.0863855744    1.5122599630   -0.0161691564
 C    0.1223616535    0.0262846515   -0.0187962641
 O   -0.7260282749   -0.7593043188    0.8463454322
 C    0.7024288672   -0.7894839591    1.0650259002
 C    1.3665381538   -1.9708645950    0.4268981034
 C    1.1962464241   -1.9381501949   -0.9050449249
 C    0.4649106439   -0.7210864688   -1.2839438798
 N    0.1462152533   -0.2568378705   -2.4316741501
 O    0.5496551596   -1.1018522575   -3.4672703384
 H    0.7972512618    2.0281722458   -0.4032077760
 H   -0.9335895108    1.7773783704   -0.6551706446
 H   -0.2898952400    1.8610103263    0.9988635093
 H    1.0377759841   -0.3776881804    2.0121577106
 H    1.8725783138   -2.7486657197    0.9848501438
 H    1.5132068244   -2.6829939348   -1.6205279439
 H    0.2447884007   -0.6303293276   -4.2500090413