18

 C   -1.1272903421    1.1567085487    0.0750819839
 C   -0.2154661574   -0.0576963186   -0.0226850247
 C    1.1269258844    0.0655755140   -0.8122289014
 C    1.7638917272   -0.8205167611    0.2505378450
 O    2.7215449355   -1.5322089159    0.3058990041
 C    0.5770646362   -0.5751055945    1.2338508062
 C    0.9717059875    0.4786273934    2.2591491615
 N    1.0142695432    0.0366527157    3.5494952325
 O    1.2492202882    1.6253435318    1.9538157286
 H   -0.5936666496    2.0195565256    0.4754468718
 H   -1.5163492410    1.4125672289   -0.9163341079
 H   -1.9866056240    0.9515716597    0.7229048160
 H   -0.7796464814   -0.9106214391   -0.4142174687
 H    1.1803837341   -0.2649484855   -1.8518235760
 H    1.5336077414    1.0792831730   -0.7220936702
 H    0.1920224048   -1.4798251778    1.7107653703
 H    0.9461917804   -0.9407449150    3.7740378430
 H    1.4213861027    0.6532146565    4.2352184260