16

 C   -0.0882663532    1.4727377978    0.0809739212
 C    0.0237857162   -0.0079250637   -0.0780179949
 C   -0.0330076403   -0.8145773969   -1.1983040254
 C    0.1490188403   -2.1193305144   -0.6958975966
 O    0.1785929769   -3.2303620692   -1.4795360009
 C   -0.0074327922   -4.4466131223   -0.8932144400
 N    0.1570259362   -5.4809277952   -1.5933211413
 N    0.3132079569   -2.1514239631    0.6167523760
 N    0.2220288853   -0.8446866855    0.9715281222
 H    0.8453130773    1.9128235524    0.4496585282
 H   -0.3182135839    1.9357295909   -0.8803334634
 H   -0.8834844101    1.7453640410    0.7836695903
 H   -0.1864342512   -0.5162241829   -2.2214065548
 H   -0.2988158645   -4.3769799835    0.1567400762
 H   -0.0426649972   -6.3071056284   -1.0323862317
 H    0.3281539935   -0.6018091571    1.9413946049