18

 C   -0.0202655173    1.5308852972    0.0811832945
 C   -0.0525637556    0.0395717594   -0.0605210746
 C    0.6614956250   -0.7930952396   -1.1747440255
 C   -0.2692696001   -1.9315304737   -0.6239870668
 C    0.2663919452   -2.0238614006    0.8167616240
 O    0.4084235189   -0.6193141606    1.1434793935
 C   -1.2714967136   -0.7982940022   -0.4289799214
 N   -2.4830117024   -0.5196232730   -0.6345451846
 O   -3.2041341863   -1.6491669596   -1.0857198160
 H    1.0004323291    1.8716132260    0.2773204479
 H   -0.3847771528    2.0079370489   -0.8318739847
 H   -0.6547288760    1.8445541303    0.9144915207
 H    0.4022752155   -0.4805387644   -2.1871191971
 H    1.7397386719   -0.9276530025   -1.0527395768
 H   -0.4957122453   -2.8461961717   -1.1637932123
 H   -0.4346533601   -2.5030755779    1.5084054875
 H    1.2398235941   -2.5233860193    0.8827426333
 H   -4.0899429900   -1.2874099368   -1.1972545017