20

 C    0.0419544027    1.4559975817    0.1800008768
 C    1.5706874450    1.3363829412    0.0077620882
 O    2.2010485051    0.9994962088    1.2363870205
 C    1.3610561957    0.1897374147    2.0656808406
 C    0.4577605315   -0.7432412263    1.2277944723
 C    1.2498851885   -1.9069150704    0.6128896368
 C    2.0474955201   -1.2264621268   -0.5284356242
 C    1.2352397337    0.0423416065   -0.7937194045
 N   -0.0559431268   -0.0377226682    0.0126152920
 H   -0.3599808402    1.8738154096    1.1057820396
 H   -0.4399644915    1.9464685560   -0.6701023618
 H    2.1614594304    2.1388932497   -0.4427058653
 H    2.0239135214   -0.3799521482    2.7243321294
 H    0.7426727234    0.8350427340    2.7049524231
 H   -0.3774086023   -1.0879449209    1.8473366219
 H    1.8823876692   -2.4166016449    1.3441141203
 H    0.5512098786   -2.6410313768    0.2012707545
 H    3.0594515359   -0.9691424599   -0.2046754055
 H    2.1253213395   -1.8599604593   -1.4147260372
 H    1.0199733302    0.2417034395   -1.8472517373