15

 C   -0.0178668516    1.5240439164    0.0289229394
 C    0.0018034262    0.0198874535    0.0054958808
 C   -0.0214012839   -0.6693071303   -1.1755733341
 C   -0.0036721470   -2.1001894133   -1.2342008700
 O   -0.0198371602   -2.8438932946   -2.1727460596
 O    0.0404340547   -2.7333636017    0.0689226011
 C    0.0621252152   -2.0373043265    1.1994334340
 O    0.1023476831   -2.8056182661    2.2914978242
 C    0.0452537447   -0.6806669796    1.2450636791
 H    0.8709530877    1.9117904324    0.5391639713
 H   -0.0503338159    1.9427943958   -0.9785629825
 H   -0.8885057711    1.8879913038    0.5859161404
 H   -0.0545491162   -0.1631991712   -2.1315792416
 H    0.1068042714   -3.7287069529    2.0036568726
 H    0.0646792030   -0.1748246557    2.1994645949