20

 C   -0.3440969717    1.5007693140   -0.0529784332
 C    0.0601512634    0.0206246707   -0.0064450622
 C    0.9447637365   -0.3977432871   -1.1585558998
 C    1.9797757725   -1.1583702271   -0.7804133416
 C    1.9570261652   -1.3399952074    0.6683449980
 N    2.6904231927   -2.0708696581    1.4186709467
 O    3.6524718199   -2.7788374771    0.6710456335
 C    0.8565189713   -0.4622014013    1.2579923373
 C    1.4651695331    0.6533409181    2.1223192112
 H    0.5248202619    2.1640817016   -0.0236201495
 H   -0.8911099466    1.7112565104   -0.9780812066
 H   -0.9994670342    1.7618263650    0.7834335982
 H   -0.8701435699   -0.5634269513   -0.0691895395
 H    0.7213744289   -0.1133307807   -2.1821635079
 H    2.7280024210   -1.6037423991   -1.4201027912
 H    4.1135801431   -3.2731033568    1.3562127314
 H    0.2080491659   -1.0679380478    1.8980852363
 H    2.1488823259    1.2820961317    1.5432502551
 H    0.6930907612    1.2956899673    2.5557907599
 H    2.0382494897    0.2035428851    2.9370189739