20

 C   -0.0353034143    1.5562870560    0.2267241204
 C   -0.0375416979    0.0427602406   -0.0526937097
 C   -1.4144751353   -0.5438788312   -0.0573744116
 C   -2.1435696615   -1.0204727107   -1.0707453619
 C   -3.4699846037   -1.4967368040   -0.5595120513
 O   -3.4322222048   -1.2427462987    0.8466798072
 C   -2.2145052141   -0.6896165217    1.1756391207
 N   -1.8469258180   -0.3741772799    2.3434533890
 C   -2.7483231630   -0.6006481081    3.4603897818
 H    0.9886843553    1.9416676503    0.2359483765
 H   -0.5959012388    2.0986303737   -0.5414138420
 H   -0.4910555935    1.7603840713    1.1979910734
 H    0.4476662105   -0.1639074353   -1.0126211743
 H    0.5480506626   -0.4583866789    0.7264052750
 H   -1.8556305136   -1.0798845425   -2.1123758879
 H   -4.3216671827   -0.9573780430   -0.9964577725
 H   -3.6353760560   -2.5701707952   -0.7269053589
 H   -2.1631956349   -0.9040933588    4.3344030222
 H   -3.2551341552    0.3365911221    3.7256651720
 H   -3.5176003611   -1.3568976760    3.2653372118