16

 C    0.1236689762    1.3688699096    0.1083353467
 O    0.1535197973   -0.0638827605    0.0481938197
 C    0.5163353118   -0.5729158057   -1.1446765150
 O    0.8019239176    0.0908565250   -2.1122615820
 C    0.5189083525   -2.0133950022   -1.1138882020
 C    0.5414367791   -3.2189868563   -1.1719006345
 C    0.5917751592   -4.6470016362   -1.2325215954
 C    0.0912420957   -5.3415124061   -2.4632751038
 N    1.5227196703   -5.3116310389   -2.1799550566
 H    1.1111811605    1.7843795032   -0.1074347511
 H   -0.5919204152    1.7701959330   -0.6137248618
 H   -0.1809311929    1.6127393272    1.1257819173
 H    0.5043859805   -5.1627037598   -0.2803845345
 H   -0.3817866659   -6.3124649626   -2.3495864676
 H   -0.3065726950   -4.7196480227   -3.2593221127
 H    1.9752972184   -4.6017777869   -2.7516697667