18

 O    0.0289734751    1.5126254256   -0.2307296682
 C    0.0231253565    0.1274364861   -0.0499783585
 C    0.0890383253   -0.5222122469    1.3741888255
 C   -1.4106092100   -0.1284073663    1.5402194212
 C   -1.3099629026   -0.6842927818    0.0867805981
 C   -0.4542396945   -1.8283551662    0.7148880485
 N    0.3923189844   -2.6610045597   -0.1004681763
 C    0.4306959209   -4.0181751919    0.0308162627
 O   -0.2185399690   -4.6686523407    0.8207390091
 H   -0.5859118353    1.9222262539    0.3857286320
 H    0.7421185866   -0.2414358149   -0.7847683949
 H    0.8848823007   -0.4382841575    2.1150131621
 H   -1.9949264323   -0.7190418415    2.2495299543
 H   -1.6436230124    0.9320184670    1.6599218568
 H   -2.1131527773   -0.7855759835   -0.6438821813
 H   -0.9950810516   -2.4928867003    1.3864020462
 H    0.9874525915   -2.2507815273   -0.8007950748
 H    1.1422837639   -4.4747347343   -0.6857028327