16

 C    0.4491837219   -0.6564552297    1.2736488345
 C   -0.4101148338   -0.1397978181    0.1478443326
 O   -1.0856764984    0.8601029044    0.3225154613
 N   -0.3929455147   -0.8077234711   -1.1019339607
 C    0.2299786559   -2.0577172635   -1.3307403969
 N    0.7038855360   -2.8004974728   -0.4191441098
 C   -1.0093404456   -0.2619402548   -2.3183687242
 N   -1.7393968286    0.8525266762   -2.1586066008
 O   -0.8427365706   -0.8226408392   -3.3822580375
 H    0.0716383149   -1.6101204208    1.6449503520
 H    1.4737486276   -0.8466716621    0.9511151850
 H    0.4159854087    0.1015599284    2.0565650188
 H    0.2136163312   -2.2803601470   -2.3949339910
 H    1.0883028547   -3.6427783476   -0.8441685253
 H   -1.8307191583    1.2734774172   -1.2423097984
 H   -2.1432457407    1.2370680105   -2.9952056598