17

 C   -0.2054189243    1.4656684098    0.0922765119
 N    0.0353675900    0.0273076372    0.0900248346
 C    1.3643348501   -0.4676033410   -0.1995923431
 C    0.7977730088   -0.5761366714    1.1882001856
 C    1.3990015319    0.2357771552    2.3292280091
 N    0.3519573532    0.6349455177    3.2713769886
 C    0.2700680381   -1.8566545893    1.6289629742
 N   -0.1237669159   -2.8690785644    2.0255813944
 H    0.6889676719    2.0732968940    0.2941701275
 H   -0.5870792969    1.7440876141   -0.8943326750
 H   -0.9591460301    1.6985336442    0.8468350532
 H    1.4278135791   -1.3455918056   -0.8359923989
 H    2.1732683294    0.2533861936   -0.3222014833
 H    2.2118752087   -0.3637045681    2.7721931440
 H    1.8601420246    1.1396817402    1.9220855681
 H   -0.0589940363   -0.1918205871    3.6976174895
 H    0.7591818676    1.1742101111    4.0290371195