18

 O   -0.1239334625    1.3364045284    0.0949167957
 N    0.0239377060   -0.0701973923    0.0967060800
 C   -1.1005843330   -0.6465626540    0.0888395995
 C   -2.5855167037   -0.3193830841    0.0034236667
 C   -2.6454212098   -1.5858934610   -0.9196204708
 C   -1.5035678658   -2.1072722609    0.0161202313
 C   -2.2433907801   -2.2448930599    1.3728136826
 O   -1.3792949527   -2.3701176252    2.4792008895
 C   -3.0855676510   -0.9140978404    1.3416280654
 H    0.7925087112    1.6320119972    0.0714333307
 H   -2.9483117403    0.6569839012   -0.3065344019
 H   -3.5823695976   -2.1505119661   -0.9220902259
 H   -2.3030927338   -1.3956256429   -1.9376499075
 H   -0.8130775303   -2.9003642267   -0.2612163677
 H   -2.8771966365   -3.1349942902    1.3952396326
 H   -0.7153536900   -1.6722008278    2.4155828022
 H   -2.8458408881   -0.2924620720    2.2078443981
 H   -4.1647729320   -1.0914011535    1.3317654093