16

 C    0.0776850951    1.4079177056   -0.0102307554
 N    0.0167446391   -0.0411301013    0.1024445863
 C   -1.2398221605   -0.6282659356    0.0512459546
 C   -2.5115437999   -0.0849577430    0.0781981015
 C   -3.3729299162   -1.2162241223    0.0830152181
 N   -4.7668636779   -1.1984938402    0.1695206240
 N   -2.7106876746   -2.3621185348    0.0481214865
 N   -1.3912657129   -1.9757601217    0.0170126709
 H    1.1214556927    1.7248256909    0.0478707380
 H   -0.3593057698    1.7961972487   -0.9431239158
 H   -0.4595120685    1.8590760532    0.8293199226
 H    0.6936026277   -0.5080272284   -0.4861600183
 H   -2.7825774852    0.9570614315    0.0857022835
 H   -5.1910465492   -0.4833697965   -0.4062459185
 H   -5.1561897856   -2.1054264985   -0.0564937506
 H   -0.6816206444   -2.6680447576    0.1787890024