18

 N   -0.0635308834   -1.1462918658   -0.0223335097
 C   -0.0422644925    0.0109204126    0.0019629358
 C    0.0089244145    1.4438879910    0.0227995509
 C    0.5673808912    2.1625772010    1.2436481529
 C    1.3567369565    2.1700184419   -0.0251301286
 C    2.6621816680    1.3726337479   -0.1753092306
 C    3.3489472911    2.0656559926   -1.3264181906
 C    2.7110736133    3.1675455067   -1.7149151541
 C    1.4706368139    3.4324418430   -0.8970807777
 H   -0.8172980396    1.9227743467   -0.4930483993
 H    0.0542186195    3.0689005622    1.5479264420
 H    0.9165708583    1.5421767554    2.0619535693
 H    3.2714829557    1.4208485966    0.7380646197
 H    2.4803936387    0.3088611388   -0.3678136840
 H    4.2715016123    1.6913508704   -1.7550548466
 H    3.0315113279    3.8324548134   -2.5087230250
 H    0.5807591704    3.5940268105   -1.5181661342
 H    1.5851980342    4.3371210452   -0.2826919803