21

 C    0.0573171693    1.5938961540   -0.1616565508
 C    0.0476274556    0.0954263953    0.1672072340
 O    0.5684927934   -0.1424634913    1.4669853219
 C   -1.3489008602   -0.5284800165    0.0650978244
 O   -2.1731885827   -0.0163809020    1.1074947634
 C   -1.9877064843   -0.6072887223   -1.3399907983
 O   -1.8958796794   -2.0402821363   -1.3505306822
 C   -1.4444797406   -2.0787421613    0.0295324741
 C   -0.2304694843   -2.9618468258    0.2201491443
 H    1.0707592990    1.9846688863   -0.0441866882
 H   -0.2711726831    1.7908863669   -1.1875902713
 H   -0.5875346943    2.1570679798    0.5235817517
 H    0.7163217616   -0.4192018192   -0.5317254667
 H   -0.1663772626    0.0249127331    2.0723413035
 H   -2.3698917054    0.9074972471    0.9158856746
 H   -3.0263698967   -0.2501428149   -1.3637448955
 H   -1.4284021655   -0.1549641469   -2.1682898601
 H   -2.2603314428   -2.4019472298    0.6901094136
 H    0.5786015489   -2.6834426243   -0.4602345522
 H    0.1379121671   -2.8876848943    1.2463281549
 H   -0.5002674130   -4.0023588374    0.0142979450