17

 C   -0.2822340739    1.5481597593   -0.1654152411
 C    0.0666690922    0.0780420364   -0.0253137731
 O    1.0948580474   -0.2755155140   -0.9727331624
 C    1.9073745703   -1.2188404697   -0.4399583177
 O    2.7605344576   -1.8013656003   -1.0275903638
 O    1.6083126051   -1.4069076965    0.8766775779
 C    0.6731593528   -0.3969018613    1.3101097947
 C    1.4452582203    0.6313075483    2.1350541532
 O    2.0506913223    0.0207619366    3.2522502058
 H    0.5850431300    2.1884444506    0.0113824570
 H   -0.6516268261    1.7442852701   -1.1748235974
 H   -1.0713851619    1.8177669565    0.5430977026
 H   -0.8134597322   -0.5335335171   -0.2600281115
 H   -0.0645892751   -0.8903238483    1.9473374196
 H    2.1847857065    1.1395686854    1.4959537130
 H    0.7581629262    1.3906181597    2.5218009392
 H    2.6066982285   -0.6921462958    2.9158761337