20

 C   -0.0571466821    1.2391401369   -0.1950012530
 C    1.4517513570    1.4856846956   -0.0008312103
 C    1.4285498399    0.1296149787    0.7449274344
 O    0.0298755680   -0.0673401047    0.4125531237
 C    2.2879077784   -0.9856502663    0.2235323625
 C    3.8207425604   -1.1797444648    0.3205643053
 N    3.3884235947   -2.4465821477   -0.4421452699
 C    2.2331417946   -2.4921703640    0.5755165150
 C    2.4701022027   -1.4922696466   -1.2284357326
 H   -0.7131883082    1.9096490575    0.3746276104
 H   -0.4168729282    1.1863701755   -1.2289009789
 H    2.0371127700    1.4756860815   -0.9224067043
 H    1.7288172923    2.3568380438    0.5935557170
 H    1.5592957397    0.2220859755    1.8336517280
 H    4.4647262355   -0.5175425438   -0.2654676326
 H    4.2539105899   -1.3892131059    1.3028300658
 H    2.5473769709   -2.7993146943    1.5771133676
 H    1.3684811794   -3.0651369279    0.2326822442
 H    1.6246854584   -1.9937990422   -1.7052690516
 H    3.0124814467   -0.8588471667   -1.9365150305