16

 O   -0.0228313626    0.6675988372   -1.3473635548
 C   -0.0277677363    1.2836715881   -0.3098834169
 C   -1.3329543254    1.8101341740    0.2975395207
 O   -1.1498966662    2.3764487530    1.5848210957
 C   -0.2222943112    3.4254192369    1.5549274161
 C    0.9311558620    3.3142890032    2.5014561966
 C    1.1385100376    3.0428426771    1.0255014354
 C    1.2224384706    1.6130433536    0.4981811695
 H   -1.7818264600    2.5280163371   -0.4070769488
 H   -2.0320849441    0.9759869889    0.4071852293
 H   -0.6479660982    4.4022744144    1.3274958371
 H    1.3403218757    4.2285168617    2.9163032634
 H    0.9281201612    2.4643146354    3.1753324631
 H    1.6827109693    3.7862909244    0.4529507757
 H    1.2754826267    0.8967613791    1.3278478163
 H    2.0989960908    1.4475223859   -0.1309273384