24

 C    0.0211122209    1.5059318240    0.2093868352
 C   -0.1149327310    0.0115950087   -0.1056054054
 C    0.6960539989   -0.4692263012   -1.3142254439
 C    0.2491260722    0.1844588919   -2.6225282067
 C    2.2717944566   -0.4365979102   -1.1728083620
 C    2.2860661232   -1.9520363909   -1.3633569829
 N    1.4843527046   -2.5035375442   -0.2384607707
 C    0.8021996374   -2.0171003778   -1.4648125288
 C   -0.1067612470   -2.9154107240   -2.2477783214
 H    1.0679511773    1.7850050344    0.3724722985
 H   -0.3677211566    2.1365073327   -0.5966390479
 H   -0.5321828205    1.7605079838    1.1189313360
 H    0.2003731747   -0.5750275176    0.7624844661
 H   -1.1748881084   -0.2259313694   -0.2754097246
 H    0.4365067375    1.2625667529   -2.6084599838
 H    0.7920650743   -0.2306042108   -3.4790323627
 H   -0.8224562048    0.0344557047   -2.7994311757
 H    2.7521009944    0.1183800102   -1.9823584377
 H    2.6663971121   -0.0965551235   -0.2116966617
 H    3.0451502413   -2.5589847139   -1.8438264216
 H    1.5268650871   -3.5204957634   -0.3108422251
 H   -1.0608119476   -3.0683464066   -1.7287746129
 H   -0.3293323479   -2.5013851370   -3.2361915980
 H    0.3518839612   -3.8998107327   -2.3953979121