21

 C    0.7349179334    1.6081925470   -0.1109178224
 C    0.0048902011    0.2716658348    0.0658639719
 C    0.0602163892   -0.5673845881   -1.1920043067
 N    1.2883917243   -1.3497641922   -1.4300274098
 C    0.0013791634   -2.0533069881   -1.2489085073
 C   -0.0867352310   -2.9586938538   -0.0401584025
 N    0.7900686869   -4.1087679655   -0.1954072512
 C    0.3545673627   -5.3945665011   -0.1787491521
 O   -0.7929092891   -5.7477046806   -0.0003486703
 H    1.7879145248    1.4398335395   -0.3570490243
 H    0.2908991649    2.1997811730   -0.9194387693
 H    0.6905394966    2.2077099889    0.8030503092
 H    0.4550879226   -0.2792438612    0.8966512026
 H   -1.0453629810    0.4493208324    0.3306199924
 H   -0.3641657548   -0.0655615201   -2.0626943081
 H    1.5462257911   -1.3259604269   -2.4123990111
 H   -0.4511211176   -2.4807254879   -2.1426775991
 H    0.1789996080   -2.4130470233    0.8703555396
 H   -1.0987322745   -3.3514693894    0.0814458406
 H    1.7624279012   -3.9221969878   -0.3860003675
 H    1.1857224777   -6.1085562295   -0.3470917644