23

 C   -0.0284449834    1.5096338262    0.2283936043
 C    1.5137086671    1.5082884742    0.0538023328
 C    1.5279136628    0.0235198301    0.5233597202
 C    0.0048958578   -0.0418371956    0.2049748599
 C    2.4739707114   -0.9633910491   -0.1541077099
 C    3.9609981579   -0.6515743253    0.1912107198
 C    4.3048220505   -1.6777550917    1.2439039718
 C    3.3783378961   -2.6296102276    1.3367313430
 C    2.2444785023   -2.4150986911    0.3631959956
 H   -0.3243972479    1.8933367772    1.2090702448
 H   -0.6252040725    2.0161458624   -0.5339145412
 H    1.7995225901    1.5914436650   -1.0006108659
 H    2.0934034605    2.2363065820    0.6268320565
 H    1.6811771073   -0.0197593987    1.6092568545
 H   -0.6453315899   -0.5774176806    0.9012342563
 H   -0.1710468339   -0.4330817361   -0.8031736371
 H    2.3063201569   -0.9056674718   -1.2354751201
 H    4.6160261388   -0.7597677651   -0.6845971785
 H    4.0926468134    0.3798133150    0.5410231405
 H    5.2216761890   -1.6369886604    1.8222472336
 H    3.4229918329   -3.4849318909    2.0024604394
 H    1.2565939579   -2.5339001975    0.8251826467
 H    2.2879254550   -3.1516162305   -0.4513349070