19

 O    0.1649005955    1.3758417491   -0.0951693180
 C    0.0238069945   -0.0202660263   -0.0085270649
 C    0.6080652759   -0.5784963683    1.3167927158
 O    0.1268573360    0.2854792129    2.3813595144
 C   -1.0959920514   -0.5113737594    2.4199455800
 C   -2.0793493640    0.0044632363    1.3544296929
 C   -1.4393465019   -0.5513784855    0.0589594218
 C   -1.1948207860   -2.0236200123    0.4501254445
 C   -0.3818105236   -1.7051268567    1.7082365414
 H    0.1203546973    1.6918396947    0.8192309309
 H    0.5330682185   -0.4567934841   -0.8755813108
 H    1.6916975588   -0.7057772975    1.3451130238
 H   -1.4853019174   -0.6015020542    3.4353498955
 H   -3.0803181081   -0.4156070740    1.5041499928
 H   -2.1588851477    1.0943965900    1.3768889695
 H   -2.0142901646   -0.3730314124   -0.8503180949
 H   -2.1158115604   -2.5763446733    0.6595751476
 H   -0.6202431965   -2.5805686367   -0.2971384422
 H   -0.0110020447   -2.5152158924    2.3323723898