19

 C   -0.1150237867    1.4540906892   -0.0530324012
 C   -0.0002055984   -0.0609353454    0.0587935171
 C    1.0642037927   -0.6997132487   -0.8954086619
 C    1.8790405698   -1.1459123350    0.3223594934
 C    0.8314385677   -0.5326654141    1.2650733751
 C    1.0252694287   -2.0221046456    1.2237133521
 O   -0.0203942769   -2.8040848320    0.7063216648
 C    1.7154482352   -2.6108386788    2.3462985441
 C    2.2901553544   -3.1366712764    3.2630118516
 H    0.8677998306    1.9332751553    0.0237196827
 H   -0.5551152840    1.7407348013   -1.0143022965
 H   -0.7485593310    1.8632122520    0.7417337237
 H   -0.9893329572   -0.5222357766    0.0001048499
 H    0.7160761217   -1.4978375363   -1.5560638223
 H    1.5837819516    0.0562174788   -1.4894414430
 H    2.9591694395   -1.1616756401    0.4057602691
 H    0.9658652017    0.0164503065    2.1900594061
 H    0.3589729470   -3.6376650642    0.4060162720
 H    2.7882886236   -3.5940726898    4.0816563830