21

 C   -0.3688744236    1.3053909670   -0.4283656984
 C    1.0383504834    1.4233537342    0.1033318285
 C    0.3501948729    0.0793339076    0.0788856391
 C   -0.0771523254   -0.5794101845    1.3519721026
 C   -0.7470042133   -1.9394268891    1.3311176491
 C    0.6428086115   -1.7899824426    1.8701097402
 C    1.9437142807   -2.4149244701    1.3739287006
 O    2.3823958777   -2.6290584158    2.7341611902
 C    1.1653289005   -2.0697436493    3.2752768436
 H   -1.1756536395    1.7028492047    0.1788747091
 H   -0.5281250538    1.4061449890   -1.4962587676
 H    1.8436908577    1.6055412245   -0.5996541437
 H    1.1771122476    1.9009935919    1.0677945676
 H    0.6943663101   -0.6139875698   -0.6849277244
 H   -0.4353584371    0.1128262855    2.1126688357
 H   -1.5530129886   -2.1332853181    2.0324079941
 H   -0.8678753896   -2.4279695012    0.3680642693
 H    1.8443774434   -3.3596190838    0.8223664902
 H    2.6212574226   -1.7475739619    0.8250553380
 H    1.3608468652   -1.1899963531    3.9034278771
 H    0.5985611078   -2.8083454550    3.8586786292