17

 C   -0.0811394022   -1.1920299086   -0.2844795648
 C   -0.0508824920   -0.0084641624   -0.0783722015
 C   -0.0004054826    1.4331731904    0.1347529096
 N   -0.4717279767    1.8296549432    1.4873851821
 C    0.3793465737    2.6801821403    1.9142047021
 N    1.4280632887    3.0326708676    1.0809019468
 C    1.4150151431    2.0631845886   -0.0051904114
 C    2.6539909247    1.3077050899   -0.3881047300
 C    2.0615711369    2.3475148616   -1.3234755626
 H   -0.1248089233   -2.2398507608   -0.4515653500
 H   -0.6703421678    1.9093032837   -0.5969257802
 H    0.2903212794    3.1710738225    2.8795206210
 H    2.3171719703    3.2494767291    1.5108502240
 H    3.5789939102    1.5568097364    0.1238642942
 H    2.5462900233    0.2595756257   -0.6438536917
 H    1.5586204336    1.9994180012   -2.2206105691
 H    2.5857521805    3.2903953417   -1.4391165086