20

 C    0.1330121717    1.5488791358   -0.0073661973
 C   -0.0488593494    0.0512353802    0.0512246971
 C   -1.3502403752   -0.5192872777   -0.5036989739
 C   -2.1221871002   -1.3570131053    0.5394665417
 N   -1.3647586247   -2.3402783896    1.3106311654
 C   -0.3242241989   -3.1245212802    0.6567777668
 C    0.0448321563   -2.0268487534    1.5978635025
 C    0.6515251614   -0.7560868955    1.0728417171
 O    1.1211288736   -0.7165218330   -0.2814824796
 H    1.1014607179    1.8398243179    0.4073741958
 H    0.0832261944    1.9014442830   -1.0437968566
 H   -0.6566387273    2.0577512771    0.5563892920
 H   -2.0043749816    0.2906405756   -0.8430563782
 H   -1.1132613574   -1.1190723175   -1.3883249557
 H   -2.5749244064   -0.6780612738    1.2731419718
 H   -2.9464407455   -1.8844148040    0.0474247849
 H   -0.2537614417   -4.1598025685    0.9793142230
 H   -0.0972784463   -2.9532679466   -0.3916124347
 H    0.3516190225   -2.2814604151    2.6097220567
 H    1.3052262968   -0.2422756894    1.7775530213