19

 C    0.0308481528    1.5032295008    0.0011411220
 O    1.1903928235    0.6598700064    0.0043068105
 C   -0.1000128553    0.0451879079    0.0079927728
 C   -0.5262387085   -0.8238030278    1.1988983580
 C   -1.0855746418   -2.0159147530    0.4217024942
 C   -0.1766334797   -2.2991767307   -0.8216204669
 C   -1.4269955255   -2.7441973283   -1.6151051810
 C   -1.8727135464   -1.4901209773   -0.8275534697
 C   -0.5063325429   -0.8070251739   -1.1691342631
 H   -0.1397680269    2.0654758081    0.9191335315
 H   -0.1364878000    2.0637737103   -0.9187261017
 H    0.3354912894   -1.0801633200    1.8229275375
 H   -1.2778370703   -0.3424268023    1.8332342091
 H   -1.4911215052   -2.8633466879    0.9770424768
 H    0.8148630601   -2.7549628602   -0.8135327440
 H   -1.3787835403   -2.6513488749   -2.7036832458
 H   -1.8829485552   -3.6945520427   -1.3219185392
 H   -2.8537218950   -1.0102647176   -0.8244704834
 H   -0.3187811129   -0.4293122268   -2.1749876474