17

 C    1.2301036063    1.0745680079   -0.3276240329
 O    1.1201685431   -0.3275086962   -0.4631570100
 C   -0.0352960931   -0.7340953300   -1.1613566871
 C   -0.0043725130   -2.2675749034   -1.2828449875
 O   -1.1611197754   -2.7123018231   -1.9302587196
 C    1.2378826782   -2.7048612761   -2.0531397862
 O    1.1248934304   -3.2362579421   -3.1331392459
 C    2.6289414428   -2.4670257947   -1.4287952552
 O    3.6157652390   -2.4025706619   -2.1087078289
 H    1.2839029236    1.5713754365   -1.3072144055
 H    0.3763761933    1.4892606628    0.2282043690
 H    2.1491803357    1.2764087019    0.2261760221
 H   -0.9528431376   -0.4376700389   -0.6319587519
 H   -0.0726021508   -0.2940481253   -2.1707181774
 H    0.0560116052   -2.6881845989   -0.2659974273
 H   -0.8591711250   -3.1001084392   -2.7677966382
 H    2.6478835074   -2.3753842292   -0.3266071575