23

 C    0.2216041193    1.4260740120   -0.0627801967
 C   -0.1143453591   -0.0790000828    0.0075844218
 C   -1.6404581653   -0.2607854984    0.0365648473
 C    0.5444516192   -0.8643999660   -1.1686728036
 C    1.8537051037   -1.4686080969   -0.6056835592
 C    1.6225325830   -1.4481020840    0.8907817213
 C    2.5446500431   -2.1612539382    1.8245127910
 O    2.1513486227   -1.9340899151    3.1661303583
 C    0.5633220320   -0.7071005415    1.2120690808
 H    1.3016609092    1.5867663804   -0.1409880612
 H   -0.2571576254    1.8940371846   -0.9310099975
 H   -0.1275065677    1.9496389049    0.8340462224
 H   -2.0995159200    0.1285341779   -0.8797134396
 H   -1.9096947450   -1.3180097102    0.1277728006
 H   -2.0867739365    0.2736375997    0.8828368928
 H   -0.1234612414   -1.6752484101   -1.4774682305
 H    0.7114731760   -0.2338983723   -2.0470624191
 H    2.0492086860   -2.4759698345   -0.9942639201
 H    2.7359433829   -0.8673508122   -0.8692598551
 H    2.5407628599   -3.2396898842    1.5824442854
 H    3.5790370984   -1.8149313178    1.6445434191
 H    2.7465942359   -2.4256563580    3.7386396762
 H    0.2327466687   -0.5202594674    2.2272964654