14

 N    0.0368487718    1.1445614917    0.4351576166
 C    0.0063543186   -0.0360675940    0.0019837414
 C   -1.2199431923   -0.9067336549   -0.0982859275
 C   -0.7475002203   -2.1440722370   -0.8359496125
 O   -1.3960594348   -3.0274417755   -1.3145795938
 C    0.8050734458   -2.0493601589   -0.8844067424
 O    1.1111808497   -0.7098393295   -0.4699758434
 C    1.4265522933   -3.0378725068   -0.0168714486
 C    1.9130440267   -3.8601904856    0.7106579014
 H    0.9861669775    1.5203050307    0.3981188868
 H   -1.5820823927   -1.1898778746    0.8965189000
 H   -2.0443077626   -0.4098473481   -0.6133688311
 H    1.1397770989   -2.1766442403   -1.9202454800
 H    2.3519309605   -4.5883536372    1.3480096631