23

 C    0.0683926840    1.4880689015   -0.0919776065
 C    0.0233236589   -0.0385538525    0.0455885429
 C    0.6278222717   -0.5088869620    1.3738461663
 C   -1.4121037888   -0.5392387175   -0.1188755821
 O   -1.4015235460   -1.9553978288   -0.1234090522
 C   -2.6863517200   -2.5639824026   -0.0821980338
 C   -3.3718023364   -2.5669654712   -1.4587119910
 C   -2.5210286677   -3.9274603642    0.4246660310
 C   -2.4161674168   -5.0551341902    0.8246981081
 H    1.0953966396    1.8557406818   -0.0054985002
 H   -0.3257096438    1.8194576638   -1.0587671597
 H   -0.5221379652    1.9734501413    0.6944209817
 H    0.6059289966   -0.4796257878   -0.7742014520
 H    0.0949972821   -0.0628841165    2.2229728342
 H    0.5620441976   -1.5951269931    1.4661766151
 H    1.6797578341   -0.2158264714    1.4517158563
 H   -2.0388214663   -0.1676924459    0.7115289679
 H   -1.8404111531   -0.1444643071   -1.0536964482
 H   -3.3233616420   -2.0089211688    0.6276879290
 H   -4.3427832633   -3.0657546807   -1.3965801315
 H   -3.5326312827   -1.5450015560   -1.8124233146
 H   -2.7486599418   -3.0991831039   -2.1815439271
 H   -2.3145969407   -6.0481460382    1.1871305964