19

 C   -0.0389702956    1.4372945238   -0.0392068832
 C   -0.0538163817   -0.0687500413    0.0269484041
 C   -0.9082428472   -0.8143885011    1.0223874791
 C    0.5956414816   -0.8330303842    1.1488879322
 O    1.2481022353   -2.0180366118    0.7750147707
 C    2.0583933939   -1.8477758966   -0.3570517539
 C    1.6449655600   -2.5898637398   -1.6006153560
 C    1.3983277613   -1.1077741153   -1.4874189721
 O    0.0798220560   -0.7078233766   -1.2266449172
 H    0.8997952095    1.8021019013   -0.4703958963
 H   -0.8637667084    1.8020097927   -0.6600902456
 H   -0.1451894394    1.8726843410    0.9590261683
 H   -1.4807262001   -0.2448407954    1.7466914524
 H   -1.3689441752   -1.7309781247    0.6731021869
 H    1.0729977178   -0.2935294853    1.9654719575
 H    3.1142807406   -1.6965296091   -0.1419289445
 H    2.4177431848   -2.9350964982   -2.2785488984
 H    0.7745286530   -3.2291170510   -1.5101040310
 H    1.9730191037   -0.4184416783   -2.1024806632