25

 C    0.0443661554    1.5995436278    0.0256081443
 C    0.0177736526    0.0683648971   -0.0170268430
 C    0.5989033711   -0.5615129787    1.2559935129
 C    0.7136631022   -2.0967117936    1.2342519093
 C   -0.6346435661   -2.7755313157    1.0012114707
 C    1.9032269265   -2.5939023526    0.3440212417
 C    2.8046753129   -2.6597004350    1.6060829991
 C    1.5157119467   -2.6254533905    2.4656093157
 O    1.4645599509   -1.8020680431    3.6091830053
 H    1.0687825623    1.9760300368    0.1238621627
 H   -0.3845256861    2.0331364000   -0.8835069237
 H   -0.5279176816    1.9804772639    0.8788335752
 H   -1.0156024769   -0.2672918774   -0.1628152964
 H    0.5767956408   -0.2799811459   -0.8953696106
 H    1.5895666565   -0.1293844538    1.4434587765
 H   -0.0130413116   -0.2697972174    2.1181381338
 H   -1.0397581932   -2.5449334897    0.0108252310
 H   -0.5401892261   -3.8647580266    1.0697415113
 H   -1.3723344596   -2.4556583521    1.7467605929
 H    1.7112082919   -3.5825584657   -0.0826386615
 H    2.2283719581   -1.9305275682   -0.4607075960
 H    3.4668502368   -3.5221260270    1.7174687844
 H    3.3884365542   -1.7458519003    1.7445191240
 H    1.1890379943   -3.6481326305    2.7089148181
 H    2.0103687981   -2.2016637318    4.2934422723