20

 C    0.3311466319    1.6020223974    0.0378247056
 C    0.1536793807    0.0928516362    0.0743217700
 N    0.7539385770   -0.6806161906   -1.0492881408
 C   -0.1359104968   -1.1957571252   -2.0719942474
 C    1.4292847088   -1.6528297835   -0.1469614854
 C    2.9149983428   -1.8294970316   -0.4535295417
 O    3.5226144957   -0.5825353756   -0.7044255970
 C    1.0375343319   -0.7328202655    1.0236302474
 O    1.3168887489   -0.6754550919    2.1821819352
 H    1.3870108664    1.8595581170   -0.0818461825
 H   -0.2313277768    2.0436968642   -0.7908532995
 H   -0.0303727459    2.0441258461    0.9711378469
 H   -0.9062374894   -0.1709410551    0.2369802467
 H   -0.5897285763   -0.3663467796   -2.6233604281
 H    0.4289329194   -1.8006458009   -2.7880080317
 H   -0.9490412623   -1.8205360145   -1.6597168787
 H    0.9199587217   -2.6279681002   -0.0723210189
 H    3.4119931459   -2.2803887227    0.4121184746
 H    3.0352711007   -2.5195056472   -1.3061113040
 H    2.8921049260   -0.1129121969   -1.2704139609