21

 C   -0.0330875294    1.5951593038   -0.1224078228
 C   -0.0295706401    0.0677683690    0.0401086828
 C    0.6884397995   -0.3275095053    1.3530330582
 C    2.1786601599   -0.0906791553    1.2720258690
 O    2.8109038810    0.6291063633    2.0008288985
 C   -1.4596230395   -0.5456478463   -0.0075976579
 C   -2.3015060313   -0.0510556296   -1.1955533254
 C   -1.3364208631   -2.0550137675   -0.1004372182
 O   -1.5478120106   -2.8333263303    0.7935175208
 H    0.9752012012    1.9989227814    0.0106804149
 H   -0.3845720713    1.9017270962   -1.1101525107
 H   -0.6756869027    2.0656138931    0.6304004775
 H    0.5390032288   -0.3608462983   -0.8007456239
 H    0.2866456042    0.2349317837    2.2015846300
 H    0.5389040251   -1.3963858972    1.5548429880
 H    2.6817246633   -0.6512635434    0.4472907583
 H   -1.9717556396   -0.3190884977    0.9346339004
 H   -3.2670775484   -0.5655622728   -1.2270350012
 H   -2.5006383731    1.0198661726   -1.1216672184
 H   -1.7925188760   -0.2351132937   -2.1486749784
 H   -1.0052048779   -2.4158728758   -1.1050720416