17

 C   -0.0642610421    1.4044754407    0.0752341384
 O   -0.0127261235   -0.0149800036    0.0409114996
 C   -1.2079231332   -0.6473199862    0.0067152715
 C   -1.3694170071   -2.0079747875   -0.0108825444
 N   -0.5146052263   -3.1252691090    0.0108953501
 N   -2.7660154371   -2.1712828278   -0.0363816873
 C   -3.3224359216   -0.9395313229   -0.0316685545
 N   -4.6986988880   -0.7319624512   -0.1369553192
 N   -2.4101036738    0.0144060036    0.0037974860
 H    0.9741019406    1.7410291896    0.0992190535
 H   -0.5668527941    1.8082374206   -0.8102595451
 H   -0.5939465675    1.7644159711    0.9639818078
 H    0.0699928091   -3.1746521443   -0.8176090929
 H    0.1066265683   -3.1112197781    0.8133003885
 H   -3.2324848066   -3.0568991169   -0.1355804270
 H   -5.2353065646   -1.2320638178    0.5628986172
 H   -4.8918955325    0.2594599897   -0.0641611822