23

 C   -0.0640697638    1.5277522561   -0.1929645943
 C   -0.0013932607    0.0143350892   -0.0438403781
 C    1.2292979187   -0.6458062960   -0.7881760403
 C    1.8929146674   -0.6827155004    0.5695533261
 C    2.9735202654   -0.3093876038    1.2525572266
 C    4.3814293898   -0.1380643936    0.7790767162
 C    2.5408847084    0.0151611870    2.6872095180
 C    1.0052014298    0.2854187940    2.5674357463
 C    0.6034467902   -0.5266687021    1.3193093555
 H    0.9046704107    1.9887418680    0.0293890109
 H   -0.3359321825    1.8058148450   -1.2169349897
 H   -0.8077376184    1.9670545240    0.4808239272
 H   -0.9672738108   -0.4294140482   -0.3033833247
 H    0.9769708842   -1.6337140357   -1.1883461760
 H    1.7139738293   -0.0611840994   -1.5760500963
 H    4.7516846539    0.8761618861    0.9783297847
 H    5.0642381985   -0.8231792737    1.2991619134
 H    4.4714143638   -0.3314244448   -0.2937313761
 H    2.7504183805   -0.8170020314    3.3753468660
 H    3.0837673617    0.8814031940    3.0849841047
 H    0.4549811240    0.0075663570    3.4712208399
 H    0.8396782890    1.3553719771    2.4015657728
 H    0.1199114510   -1.4765630987    1.5811225675