18

 C    0.0983799618    1.4483549244   -0.1586727949
 C   -0.0777500556   -0.0197283846   -0.0115152724
 C   -1.1241245841   -0.8088673813    0.3486023820
 C   -0.6600678718   -2.1659823169    0.3000454582
 C    0.6398084554   -2.1110355080   -0.0867543061
 O    1.0138407580   -0.8022090390   -0.2823754530
 N    1.5671419353   -3.1288688248   -0.2938096436
 C    2.5578539486   -2.9710439287   -1.3707771437
 C    2.9760579734   -2.8792533791    0.0513574171
 H    0.8790057597    1.8325589889    0.5085290392
 H    0.3804608419    1.7229871392   -1.1819711201
 H   -0.8372168796    1.9572890832    0.0843049853
 H   -2.1115371339   -0.4660114672    0.6170805868
 H   -1.2099450780   -3.0661994645    0.5209120501
 H    2.7530999219   -3.8726054257   -1.9438706542
 H    2.5320168772   -2.0480669142   -1.9420740421
 H    3.2301620509   -1.8947777197    0.4323756831
 H    3.4807398993   -3.7128780320    0.5306514983