17

 C   -0.2181702074    1.4959995768    0.1182820392
 N    0.1137213878    0.0883984832   -0.0161593678
 C    0.7330179490   -0.4550941862   -1.2407748087
 C    2.0788028338    0.2092112661   -1.6609655419
 N    2.7657063001   -0.4699389447   -0.4968040652
 C    1.5761181949   -1.3881202498   -0.3312930839
 C    1.0994585084   -0.5666087260    0.8928994222
 C    2.4170683305    0.2167380509    0.7307715021
 O    2.9198727641    1.1756430391    1.2387114709
 H    0.6460395712    2.1759663063    0.0676375989
 H   -0.9233351424    1.7657068672   -0.6748232978
 H   -0.7133586194    1.6557829728    1.0814023402
 H    0.0199846714   -0.7411350889   -2.0174337194
 H    2.4638389256   -0.1756552490   -2.6103521007
 H    2.1586929843    1.2999482810   -1.6512755374
 H    1.7101660591   -2.4629179749   -0.3998704179
 H    0.7089142089   -0.8943776738    1.8580192173