19

 C   -0.4642628373    1.7758454417    0.1493749288
 C    0.0441812325    0.3520944333   -0.0004322691
 C    0.7869025402   -0.0367260508   -1.2953480326
 C    1.9528125762   -0.3281304317   -0.3601616706
 C    2.8848598309   -1.4911226871   -0.3112948687
 C    3.4124656594   -0.0736783469   -0.5128817238
 O    1.2367417655    0.1086351650    0.8063653528
 C   -1.0091774523   -0.6510765561    0.4505290014
 O   -1.6173686899   -1.3907560245   -0.2774871431
 H    0.3371606643    2.4825275947   -0.0827060733
 H   -1.3051396592    1.9564620842   -0.5285168302
 H   -0.7986278891    1.9623751146    1.1754588948
 H    0.3545014901   -0.8904547509   -1.8185093325
 H    0.9453432361    0.7896347879   -1.9912444915
 H    3.0522577077   -1.9492141047    0.6575355049
 H    2.9012919533   -2.1791332770   -1.1504030485
 H    3.7907965676    0.2091610376   -1.4901084517
 H    3.9228285303    0.3894941554    0.3247942531
 H   -1.1570307263   -0.6547006146    1.5542623996