17

 C   -0.0564663748    1.5443170419   -0.0006390013
 C   -0.0112133342    0.0367857702   -0.0115384960
 C   -0.3434399685   -0.6760410497   -1.3368529024
 N   -0.6373193937   -2.0645405240   -0.9332188289
 C   -0.7385937603   -2.0005360341    0.3285727252
 O   -0.1897739956   -2.8977817675    1.1935939864
 C    1.0645675706   -2.1542660665    1.3785019908
 C    0.6635554270   -0.6589224269    1.1875874496
 N   -0.8007070178   -0.7007662018    0.9890839941
 H    0.7454754934    1.9544214093   -0.6238762311
 H   -1.0117177701    1.9004221678   -0.4003379349
 H    0.0575701494    1.9456230249    1.0094640005
 H   -1.1927142018   -0.1676523070   -1.8147277586
 H    0.4759155670   -0.6998578933   -2.0631465947
 H    1.4030847038   -2.3285290831    2.4017417667
 H    1.8023772604   -2.5231110641    0.6610448995
 H    1.0270309552    0.0167605640    1.9592758450