15

 N   -0.3709902948   -1.0864176405   -0.8236232410
 C   -0.2264362762   -0.0323245161   -0.3743802181
 C   -0.0038303182    1.3227554567    0.1688276044
 N   -0.5635167396    1.3933448955    1.5170435607
 C    0.1139626061    1.9183579526    2.4474087743
 O    1.3650859185    2.4256824838    2.4408858600
 C    2.1064418438    2.3229101070    1.2460697002
 C    2.5325929377    0.9650927181    0.7709676073
 C    1.4598098431    1.7325201229    0.0283159232
 H   -0.6018223046    2.0042495515   -0.4511257309
 H   -0.3123909453    2.0106083056    3.4436866571
 H    2.7757170266    3.1696125492    1.1578603069
 H    3.5072104522    0.8618602201    0.3089248100
 H    2.2164305979    0.1125158921    1.3633453574
 H    1.7217458228    2.1577696115   -0.9343401016