17

 C    0.0701176088    1.4779678808   -0.2537932603
 C   -0.0111301530    0.0245371913    0.2260774659
 C   -1.4088501969   -0.5531803254    0.1311247057
 O   -2.3640701906    0.0543310038    0.9649405440
 C   -1.9130379063   -1.1094284359   -1.1924894794
 C   -1.6128973985   -2.0244590979   -0.0180930195
 O   -0.4778485965   -2.8389370459   -0.0401801457
 H    1.0908891875    1.8623769689   -0.1709293512
 H   -0.2393748986    1.5694765987   -1.3008252871
 H   -0.5712063618    2.1328033193    0.3469627759
 H    0.6698679747   -0.6069540853   -0.3507789453
 H    0.3120988198   -0.0382022997    1.2721662596
 H   -2.5776786896    0.9148793003    0.5885555184
 H   -2.9530613355   -0.9458440705   -1.4529708664
 H   -1.2169961835   -1.1292727419   -2.0250903314
 H   -2.4716325480   -2.4298202738    0.5157668291
 H   -0.6337291320   -3.5447274770   -0.6760612023