20

 C    0.3780657407    1.7048756603   -0.6567023437
 C    0.4210329411    0.2172381255   -0.3682691388
 C    1.6358890299   -0.6624645770   -0.4476731706
 C    2.8790222331    0.0192456495    0.1458257097
 C    2.1541634697    0.0975831531    1.5297328812
 C    2.0978522852    1.3954386523    2.3154395819
 O    3.4115268911    1.6525230219    2.7990304048
 C    0.8860696584   -0.4826709545    0.8871761409
 H    1.3202884303    2.2083360025   -0.4313618930
 H    0.1674792192    1.8758104071   -1.7186126528
 H   -0.4114458861    2.1996542518   -0.0798121228
 H   -0.4544123386   -0.2969278799   -0.7644994185
 H    1.6658810764   -1.5371122858   -1.0869502791
 H    3.7579656283   -0.6268978460    0.1718979496
 H    3.1734458583    0.9707429773   -0.3083148915
 H    2.5944132605   -0.6537800241    2.1935090913
 H    1.7399037105    2.2249625701    1.6905095183
 H    1.3810777394    1.2818213475    3.1465019184
 H    3.4027725252    2.4960587853    3.2603224159
 H    0.2317342375   -1.1881833168    1.3882298289