15

 C    0.0203764382    1.4989845919    0.0587224968
 C   -0.2809108535    1.8537968643    1.5078775734
 C    0.8352824519    1.3340441113    2.4008205281
 C   -0.4522515281    0.5569366240    2.2645687964
 N    0.1787512698   -0.4644370479    1.3717086998
 C    0.0279941710   -0.0086272579   -0.0453584965
 C    1.3377047775    0.7423635460   -0.0157700387
 C    1.4896066935    0.3115457634    1.4542501271
 H   -0.3039875650    2.1138950108   -0.7701878730
 H   -0.8355451063    2.7398841903    1.7865337091
 H    1.2644123360    1.8557309805    3.2466399107
 H   -1.2393096618    0.3155093315    2.9685776089
 H   -0.4543081510   -0.6089500099   -0.8071807659
 H    2.1001591561    0.8715083490   -0.7732031036
 H    2.3632593415   -0.2549663673    1.7745935574