19

 O    0.0278020012    1.3827245432   -0.2592379495
 C    0.0334042421    0.0194985134    0.1371327744
 C   -1.3713001137   -0.5395608935    0.1194611514
 C   -1.7474619937   -2.0634157468    0.0450771515
 C   -3.0885244679   -1.5523373016   -0.5928421154
 C   -3.7061385035   -0.7671937908    0.5895449870
 C   -2.4309495633   -0.0126142988    1.1144568020
 C   -2.1769229160   -0.4737685646   -1.1893107450
 O   -2.0107095075    0.0675545104   -2.2474723178
 H   -0.3374193491    1.4065619567   -1.1529941301
 H    0.6817770247   -0.5861768790   -0.5160734418
 H    0.4657274121   -0.0114233991    1.1436697997
 H   -1.1239260449   -2.6298117756   -0.6494862020
 H   -1.8411546483   -2.5862006005    1.0001487651
 H   -3.7360993907   -2.1840395404   -1.1968550061
 H   -4.4981871317   -0.0863920601    0.2676941590
 H   -4.1265195137   -1.4438569032    1.3379623663
 H   -2.1796627738   -0.2848350196    2.1437340455
 H   -2.5227757421    1.0741555097    1.0639830658