23

 C   -0.1068704384    1.5771919737    0.1122652034
 C    0.0499158436    0.0665932181    0.0020855770
 C    1.2055311544   -0.5964406437   -0.7973941954
 C    2.1794890147   -0.1973241619    0.3725924906
 C    0.8924297891   -0.7586795043    1.0498175428
 C    0.3380998752   -1.3158629986    2.3384819656
 C   -0.7217215557   -2.3406562219    1.7911617344
 C   -0.3492108080   -2.7022193846    0.2963680961
 C    0.9387867155   -1.9072935863    0.0256372961
 H    0.8253179366    2.1045832495    0.3291832135
 H   -0.5070484708    1.9882058215   -0.8217813742
 H   -0.8192203483    1.8295539838    0.9063067370
 H   -0.9293577850   -0.3682824012   -0.2154412998
 H    1.4106581734   -0.5012426040   -1.8662671738
 H    3.0805134437   -0.8089208700    0.4765565309
 H    2.4161571736    0.8604213094    0.4899667373
 H    1.1224108886   -1.8332617131    2.9031442567
 H   -0.1169365971   -0.5773631197    3.0057463574
 H   -0.7634480708   -3.2333378055    2.4213211861
 H   -1.7187377026   -1.8917514155    1.8259187712
 H   -0.1702633222   -3.7746085021    0.1835808533
 H   -1.1768602930   -2.4570524871   -0.3737524762
 H    1.8259225634   -2.5440190565    0.1111489601