20

 C    0.2143470400    1.3615293833    0.3430500502
 C   -0.1347922207    0.0847594694   -0.4401584005
 C   -1.5318898306   -0.4051128781   -0.1913396920
 C   -2.5457460020   -0.4750774638   -1.1203325621
 N   -3.6807146526   -0.9582707006   -0.5095105785
 C   -3.4123655609   -1.1902494451    0.8191277829
 C   -2.0973228230   -0.8643155109    1.0411142013
 O   -2.5726956448   -0.1232873087   -2.4326621195
 C   -2.2484592709   -1.1768417230   -3.3406508213
 H    1.2421756766    1.6797045981    0.1390918791
 H   -0.4585688376    2.1805405886    0.0709808412
 H    0.1200373560    1.2006528548    1.4217883381
 H   -0.0148477699    0.2771980806   -1.5122676107
 H    0.5911003079   -0.6985705710   -0.1835478229
 H   -4.5751526594   -1.0367636598   -0.9608892477
 H   -4.1749824636   -1.5622796891    1.4836718667
 H   -1.5816233700   -0.9452474314    1.9865338270
 H   -2.2981079798   -0.7512027244   -4.3452860329
 H   -1.2390906183   -1.5617148098   -3.1538192142
 H   -2.9633184165   -2.0061508292   -3.2622426642