15

 O    0.0396862562    0.0287527097   -0.1272418141
 C   -0.0284298798    1.2071022722    0.0004367120
 C   -1.1388785035    2.2100190584    0.3123488005
 C   -0.0537808675    3.2724234519    0.6398605161
 C    1.0835727444    2.3548251043    0.0281751450
 C    2.2299910520    2.0831067514    0.8741670352
 C    3.1449827497    1.8349687135    1.6123758166
 C    1.4416560805    2.7284438987   -1.3325686169
 C    1.6841581156    3.0273863185   -2.4711536578
 H   -1.7219335944    2.4419664621   -0.5844118169
 H   -1.8263930075    1.9137973345    1.1075108972
 H   -0.1569488103    4.2398895975    0.1517544060
 H    0.0974736376    3.4102313579    1.7105654197
 H    3.9662215492    1.6175404063    2.2496855349
 H    1.9221400178    3.2888522730   -3.4726624875