21

 C   -0.1259307826    1.5532572137    0.0014040581
 C    0.0087235933    0.0301051362    0.0098481006
 O   -1.2906194691   -0.5546787763   -0.1021013757
 C    0.8851645791   -0.5392878549   -1.0999274752
 C    2.3007262731   -0.6228553972   -0.5607125969
 C    2.2723557589   -0.1157464223    0.8799773809
 C    0.8285771070   -0.5683861785    1.1998507444
 C    0.8799890934   -2.0649462777    0.8109212914
 C    1.4263861534   -1.8626242538   -0.6009159793
 H    0.8401515386    2.0619997027   -0.0167051470
 H   -0.6913074749    1.8650298234   -0.8819545614
 H   -0.6698670570    1.9002204737    0.8894869548
 H   -1.8396459233   -0.1798846702    0.5951370361
 H    0.6675828181   -0.3555445251   -2.1439650942
 H    3.1621960337   -0.5089004761   -1.2057120773
 H    3.0118057649   -0.6141374210    1.5166013563
 H    2.4246521459    0.9631827191    0.9696834354
 H    0.4512561525   -0.3329791998    2.1963089482
 H    1.5573821250   -2.6381361105    1.4529623825
 H   -0.1071608469   -2.5299390751    0.8187334580
 H    1.6296869867   -2.6827805905   -1.2765477798