23

 C    0.0658772106    1.5438571597    0.1819025929
 C   -0.0384903716    0.0270449494    0.0059552001
 C    0.7864990339   -0.4914876425   -1.1765749668
 C    0.6367576304   -2.0123107561   -1.3720553056
 O   -0.7113350476   -2.3625012793   -1.5418910922
 C    1.4518742575   -2.5254274417   -2.5646013944
 O    0.8707807246   -3.1026339892   -3.4616445102
 C    2.9513688369   -2.3031234870   -2.5822482278
 C    3.6778776849   -3.1400371257   -3.6346842560
 H    1.1015894323    1.8567486079    0.3576338967
 H   -0.2910411408    2.0715714961   -0.7096038580
 H   -0.5329611782    1.8861084134    1.0315766889
 H    0.2947352961   -0.4754206545    0.9239892795
 H   -1.0822996038   -0.2651492738   -0.1439722576
 H    0.4656111288    0.0100673617   -2.0992481936
 H    1.8449959685   -0.2448614509   -1.0247129742
 H    1.0413921241   -2.5142250694   -0.4735691118
 H   -0.7438140573   -2.8261099038   -2.3952999808
 H    3.1161705723   -1.2314631878   -2.7618196820
 H    3.3452428814   -2.4873452996   -1.5747209890
 H    4.7469887545   -2.9117562131   -3.6357218899
 H    3.5546411735   -4.2088736111   -3.4394773728
 H    3.2767727489   -2.9416824524   -4.6308954254