20

 C   -0.2348771948    1.4660751870    0.0066961489
 N    1.1550388376    0.9891240184    0.0021719963
 C    0.0397723732    0.0001791264    0.0226140105
 C   -0.0649064178   -0.7584808451    1.2937113464
 C   -0.1461095173   -2.0870011230    1.3583860764
 C   -0.1117613630   -3.0013052740    0.1630137427
 C   -0.3353851980   -2.2914740831   -1.1614509194
 C   -1.5875137591   -1.4800993935   -1.3767787848
 C   -0.2531670335   -0.7826292332   -1.2260723194
 H   -0.5411707652    1.9744181205    0.9179892790
 H   -0.6525436731    1.8860289826   -0.9054782656
 H    1.5371778703    1.0446846519   -0.9396002719
 H   -0.0462503569   -0.1661143045    2.2042447863
 H   -0.2066877968   -2.5685588149    2.3313282530
 H    0.8641137966   -3.5089059044    0.1430666953
 H   -0.8512142789   -3.8050155571    0.2872809875
 H    0.0369585681   -2.8296442503   -2.0280129061
 H   -2.0505900499   -1.4924420740   -2.3571917528
 H   -2.2848588632   -1.4011167346   -0.5491285954
 H    0.1638484315   -0.3481912853   -2.1315161370