18

 C   -0.1175684334    1.5869027901    0.0910309938
 C   -0.0176522384    0.0738067846    0.0510306604
 C    1.1704908289   -0.6014375508   -0.7058132519
 N    2.0755544553   -0.0848794209    0.3959909903
 C    0.8711091549   -0.6658286123    1.1005243543
 C    0.9031285174   -1.9012571581    0.1284342318
 O   -0.3152051523   -2.6040139467   -0.0029514237
 C    2.0134261014   -2.9176169534    0.3314469115
 O    3.1836751058   -2.7777728128    0.0705156012
 H    0.8570566521    2.0431955922    0.2682408473
 H   -0.5174240797    1.9673595918   -0.8555651979
 H   -0.8043003481    1.9033936651    0.8838203574
 H   -0.9811562776   -0.4036038251   -0.1208239799
 H    1.4472053857   -0.5334344197   -1.7599018811
 H    2.8871411621   -0.6966668110    0.4883396599
 H    0.7819103830   -0.6874721373    2.1881400748
 H   -0.3214328641   -3.0591773249   -0.8522709879
 H    1.6244526369   -3.8722205308    0.7514965396