23

 C   -0.0139793727    1.5712698983    0.0061884033
 C   -0.0009529949    0.0393700106   -0.0239941522
 C    0.5905061421   -0.4817070983   -1.3466894549
 C    0.7709911894   -2.0115384252   -1.3821722672
 C    1.1910399327   -2.6383913815   -0.0610862285
 C    2.2252696185   -2.1520165854    0.9340679434
 C    2.3281410282   -0.6297686143    1.0416763250
 C    0.7646926997   -0.5513116907    1.1707055476
 C    0.7268447527   -2.0927581310    1.2544213882
 H    1.0059500944    1.9729864398   -0.0221356806
 H   -0.5542077036    1.9824377393   -0.8536290542
 H   -0.4939366677    1.9483230462    0.9157777419
 H   -1.0402248647   -0.3151396870    0.0535189628
 H   -0.0468824045   -0.1722770112   -2.1831782018
 H    1.5567613637    0.0079048915   -1.5138987682
 H   -0.1850841457   -2.4753746167   -1.6620472732
 H    1.4795687928   -2.2803818229   -2.1755825729
 H    1.1763012477   -3.7267258719   -0.0919553538
 H    2.9639818699   -2.8437980071    1.3236144825
 H    2.8072391250   -0.3360377904    1.9794046377
 H    2.8159692945   -0.0849747708    0.2279404249
 H    0.4540155226   -0.0649590015    2.0989076115
 H    0.1508212197   -2.6670247697    1.9705539087