20

 C    0.3117869228    1.4369274730   -0.1629824530
 C    0.0284829726   -0.0621660339    0.0362863787
 C   -1.4373679609   -0.3954634879    0.0798243939
 C   -2.1589717893   -0.7143161259    1.2244813546
 N   -3.4555597763   -0.8692346940    0.8169181598
 C   -4.8410149549   -1.3206793488    1.0147184009
 C   -5.0397328758   -1.0881954426   -0.5337439196
 C   -3.5705042681   -0.6961178445   -0.5274032327
 C   -2.3332984282   -0.3949921066   -1.0463762539
 H    1.3885020062    1.6350530596   -0.1992483693
 H   -0.1306749337    1.7988099172   -1.0965261123
 H   -0.1173257479    2.0251795353    0.6543907754
 H    0.5115640615   -0.6256447846   -0.7725825378
 H    0.5032699765   -0.3984339000    0.9656732351
 H   -1.8414941625   -0.8046754220    2.2508886959
 H   -4.9261673277   -2.3621226284    1.3392485430
 H   -5.4300784793   -0.6799425224    1.6775863567
 H   -5.2964373440   -1.9914563664   -1.0938092206
 H   -5.7540682180   -0.3000142278   -0.7874217367
 H   -2.0646339228   -0.1986153294   -2.0730482181