20

 C   -0.0055302492    1.3569156254    0.2025157562
 C    0.1830069852   -0.1563575800    0.0676914200
 C    0.6709193955   -0.5516262063   -1.3337996925
 N    0.8919842068   -1.9704898858   -1.5353381046
 C    1.7034024041   -2.9230350876   -0.7714082829
 C    0.8896253113   -3.6274512942    0.2737691965
 C    0.7670221593   -4.0364019745   -1.1939410789
 C   -0.0236293838   -2.9477120621   -1.9249327838
 O   -1.0360669961   -2.8813936043   -2.5679984129
 H    0.9334021865    1.8917223544    0.0207548864
 H   -0.7433410715    1.7300915069   -0.5160353294
 H   -0.3518745589    1.6252727730    1.2047886808
 H    0.9036632754   -0.5083291927    0.8157877147
 H   -0.7630975444   -0.6713649033    0.2737013515
 H   -0.0684774573   -0.2558981510   -2.0860078682
 H    1.5974854243   -0.0114263987   -1.5679214271
 H    2.7843519524   -2.9024765550   -0.8194611405
 H    1.4166273858   -4.3429652171    0.8998036279
 H    0.0709254649   -3.1117786544    0.7655738030
 H    1.0010121796   -5.0289489627   -1.5495672562