20

 C    0.1890044927    1.3574229248    0.1559121736
 C    0.1174619154   -0.1473678239    0.0930672602
 C    0.5473259331   -1.1076721339   -1.0452755995
 N    0.0178630581   -2.0979207573    0.0078693956
 C    0.7913749706   -1.2078552398    0.9991419140
 C   -1.1295581580   -1.0770285485    0.1561463425
 C   -2.0420507056   -1.2050870356    1.3790454036
 C   -3.0240860093   -0.1271011724    1.4225374183
 C   -3.8206133960    0.7731678522    1.4327989730
 H    1.2251063710    1.7051964325    0.0805339332
 H   -0.3802647389    1.8099509961   -0.6629753807
 H   -0.2280367628    1.7318373695    1.0963726565
 H   -0.0326272824   -1.1037193292   -1.9731353133
 H    1.6167115835   -1.2212842657   -1.2432067673
 H    1.8761708592   -1.3235055911    0.9202153399
 H    0.4780469919   -1.3054022410    2.0397318145
 H   -1.7595120832   -1.0588321675   -0.7400681386
 H   -2.5548797055   -2.1738452582    1.3173985062
 H   -1.4783987485   -1.2193147282    2.3168766394
 H   -4.5314122853    1.5616331371    1.4536956188