25

 C   -0.4113528889    1.5367437827    0.0601253004
 C   -0.0883645832    0.0417964636    0.0088447856
 C    0.7277807622   -0.4427700731    1.2153015849
 O    0.0552616098   -0.1612304757    2.4435250280
 C    1.0893068534   -1.9313737321    1.1010686002
 C    1.8995231060   -2.5119474183    2.2737479552
 C    1.8933839860   -4.0458763547    2.2422557386
 C    3.3337446139   -1.9788882288    2.2831957471
 O    3.9885069514   -2.4772696011    3.4421820079
 H    0.5033205506    2.1384256941    0.0154481641
 H   -1.0481369675    1.8352152570   -0.7780578406
 H   -0.9249094299    1.7860414169    0.9922444775
 H   -1.0199554741   -0.5418491178   -0.0372343380
 H    0.4629266477   -0.1954512412   -0.9098589579
 H    1.6444740915    0.1576772186    1.2741761957
 H   -0.7576056716   -0.6800224827    2.4534310670
 H    0.1519595458   -2.5001676470    1.0094236158
 H    1.6287195748   -2.0961703181    0.1577337425
 H    1.4299453447   -2.1764274279    3.2059221800
 H    2.3079233965   -4.4205552022    1.2977665006
 H    2.4960272333   -4.4501555835    3.0580940081
 H    0.8749922275   -4.4375512920    2.3354270206
 H    3.8512201946   -2.3067725146    1.3643918912
 H    3.3307905637   -0.8788580542    2.2849826144
 H    4.8843337621   -2.1291622080    3.4544107010