20

 C   -0.0035865802    1.4271052447    0.0995168792
 C    1.5371201256    1.5032614097   -0.0270555940
 C    2.0216570628    1.3626696463   -1.5089578521
 C    1.6190619024   -0.1405744525   -1.4616041533
 C    2.6560620382   -1.2919225409   -1.3013525775
 C    2.4300377007   -1.2403827851    0.2624401083
 C    1.4656056057   -0.0545942316    0.0511739977
 N   -0.0630579814   -0.0743133897   -0.0331942521
 C    0.0989182693   -0.4334057713   -1.5002738350
 H   -0.3413660597    1.7069854256    1.1020816735
 H   -0.6022841102    1.9704442255   -0.6405535965
 H    2.0659592838    2.1776407088    0.6485241027
 H    1.5441822898    2.0045313222   -2.2573727232
 H    3.1064136693    1.4839272833   -1.5938565546
 H    2.3900905085   -2.2383456153   -1.7803296360
 H    3.6696962219   -1.0250674865   -1.6130041099
 H    1.9363162885   -2.1215097554    0.6804195441
 H    3.3175461981   -1.0297418497    0.8647502317
 H   -0.5273273953    0.1546597192   -2.1815345934
 H   -0.1310881176   -1.4933024374   -1.6498421998