14

 N   -0.0740597592    1.3163241192   -0.3547214663
 C   -0.0166209239    0.0633470180   -0.0957960886
 C    1.2125789060   -0.6641519020    0.1954171196
 C    1.4830564243   -1.9887595548    0.1919428015
 N    0.7008644397   -3.0808088526   -0.1106833303
 C   -0.5723572373   -3.0426977540   -0.2264587244
 N   -1.4677012772   -2.0103915383   -0.0858108074
 C   -1.3779123660   -0.6068469806   -0.0238675026
 O   -2.4047184303    0.0155996446    0.0696921822
 H    0.8691257332    1.7140296211   -0.3687909087
 H    2.0550078854   -0.0136214673    0.4206258677
 H    2.5068159434   -2.2728049943    0.4258500940
 H   -1.0807841859   -3.9795955581   -0.4545028678
 H   -2.4439875524   -2.2809888610   -0.1129204888