21

 C   -0.1054346811    1.6016309225    0.0571950534
 C    0.0830939400    0.0942938599    0.1348495813
 C    1.3148691131   -0.6857154659   -0.2286633212
 C    2.6084868985   -0.0548613654    0.2858549722
 O    2.9710174046    1.2192553436   -0.1993949042
 C    2.0297319214   -0.0889892199    1.7412915103
 O    2.0038284157    1.1435305326    2.4417785283
 C    0.7401776589   -0.7252025542    1.2215406342
 C    0.0207215000   -1.8333539764    1.9426373365
 H    0.8233540834    2.1488239443    0.2122783826
 H   -0.4636107038    1.8786101819   -0.9401357569
 H   -0.8611857681    1.9405693101    0.7768391471
 H   -0.8083772646   -0.4306457551   -0.2096441936
 H    1.2844347343   -1.4756712600   -0.9706185034
 H    3.4511582393   -0.7511150234    0.1807141463
 H    3.1604996881    1.7472096862    0.5889937631
 H    2.5921292574   -0.7821496527    2.3732950681
 H    1.2103892179    1.6210541947    2.1825046673
 H   -0.5268442485   -1.4530620995    2.8135880049
 H   -0.7053795112   -2.3266735040    1.2883974919
 H    0.7204326646   -2.5965956594    2.3021475619