18

 C   -0.0123074034    1.4812356021   -0.0187321241
 N    1.2401008805    0.6802674505    0.0620993770
 C   -0.0442058747    0.0108516955    0.0095558908
 C   -0.5358059434   -0.9269291539    1.1228450272
 C   -2.0312511978   -0.9873062271    0.6856008673
 O   -1.9780943030   -0.9757835117   -0.7509992607
 C   -0.5643932514   -0.9006001021   -1.0963525354
 C    0.0710588724   -2.2215636545   -0.6913310104
 C    0.0831444753   -2.2312943906    0.6478402944
 H   -0.2357549298    2.0585293613    0.8747654263
 H   -0.2532132457    1.9829632871   -0.9528819138
 H    1.6982121015    0.6522635424   -0.8461704461
 H   -0.3606430104   -0.6256223606    2.1539986996
 H   -2.5402792727   -1.8925678150    1.0345362344
 H   -2.5834901183   -0.1059786087    1.0346188413
 H   -0.4826181863   -0.5750020532   -2.1327807818
 H    0.3401461387   -3.0224396604   -1.3670850385
 H    0.3745048686   -3.0452861310    1.2994148124