21

 C   -0.2314241112    1.5406628917    0.2876159411
 C    0.0620971079    0.0940881129   -0.0562992546
 C   -0.8559284018   -0.9664451645    0.5030316050
 C    0.5526730482   -0.8198367715    1.0450452704
 C    1.5780851469   -1.9025474944    0.7679077325
 O    1.3367067136   -3.0719529792    1.5547782106
 C    1.6905507968   -2.2422597055   -0.6950949895
 C    1.2611087063   -1.4564451735   -1.6810797537
 C    0.6097955334   -0.1185614236   -1.4622431619
 H    0.6771835437    2.1523479576    0.2385245531
 H   -0.9598722642    1.9719651149   -0.4096925863
 H   -0.6432104285    1.6338181426    1.2973713175
 H   -1.6793712093   -0.6506812713    1.1346188412
 H   -1.0745470970   -1.8251546796   -0.1246512684
 H    0.6344345390   -0.3848222127    2.0371172476
 H    2.5581452108   -1.5538413957    1.1222309463
 H    0.4356180963   -3.3549885169    1.3618924976
 H    2.1727387306   -3.1927412054   -0.9081226434
 H    1.3998838243   -1.7653600041   -2.7146223764
 H   -0.1954402809    0.0267396519   -2.1962320539
 H    1.3436924152    0.6722230266   -1.6827531750