20

 C   -0.1371440129    1.5510573292    0.0928989334
 C    0.0629324565    0.0389617026   -0.0070461828
 C   -1.2603406174   -0.6685114229   -0.3601029682
 C   -1.8418473534   -0.2330241183   -1.6868631628
 O   -2.9798607718    0.1229408711   -1.8556153464
 C    1.2653106632   -0.4965702909   -0.8513075449
 N    1.8053717047   -1.3036421997    0.2999962806
 C    2.1612744673   -0.3128006201    1.3306059333
 C    0.7380966759   -0.6665812789    1.1787274851
 H    0.7833002647    2.0628524689    0.3857374409
 H   -0.4592904952    1.9731902922   -0.8658852859
 H   -0.9080367789    1.7936862427    0.8328093368
 H   -1.0788807715   -1.7513740068   -0.4194708843
 H   -2.0147845037   -0.4977857772    0.4149948557
 H   -1.1274002886   -0.2695716962   -2.5424919900
 H    0.9867223085   -1.1550331973   -1.6769086395
 H    1.9695470798    0.2556334876   -1.2229416719
 H    2.6916087399   -0.7492600427    2.1716039411
 H    2.5320770974    0.6616312671    1.0205374106
 H    0.2045682654   -1.2441391205    1.9290745692