23

 C   -0.5218043054    1.3414519558   -0.0343379762
 C    0.0909317192   -0.0611337400    0.0029871194
 C    1.1778734924   -0.2420190391   -1.0504365120
 O    0.6990291514   -0.3382148243    1.2620946674
 C   -0.1928453172   -0.5578249823    2.3437591374
 C    0.6057386636   -1.2254172065    3.4336225417
 O    1.2059469358   -2.4181647278    3.0131188808
 C    1.3340342059   -0.3864833543    4.4567834126
 C    0.1200488918   -1.2111354085    4.8459711615
 H    0.2468779733    2.0954000244    0.1643007303
 H   -0.9570344193    1.5415902835   -1.0185550028
 H   -1.3165770583    1.4564019112    0.7083106158
 H   -0.7074077972   -0.8026908449   -0.1709810216
 H    1.9882029411    0.4758358472   -0.8882570319
 H    1.5976470207   -1.2503792936   -0.9994765377
 H    0.7726024837   -0.0849637318   -2.0542653163
 H   -0.6312109993    0.3825615417    2.7082262358
 H   -1.0144735025   -1.2189857715    2.0231625348
 H    1.6627206910   -2.1945952325    2.1919997695
 H    2.3027653447   -0.7512295546    4.7773074324
 H    1.2371531069    0.6932573589    4.4171662669
 H   -0.8078626599   -0.6980255083    5.0763922844
 H    0.2929548777   -2.1154750228    5.4179084277