21

 O   -0.2510223832    1.4099023865   -0.1580837792
 C   -0.0443091807    0.0234127568   -0.0304467878
 C    1.1083585966   -0.5169283108   -0.8551555774
 C    2.4682187301    0.0721547537   -0.4572166195
 C    3.6284002078   -0.4874866585   -1.2983350382
 C    4.9372299990    0.1944198393   -0.9744777943
 O    5.9398886979   -0.3635883450   -0.6107508145
 C   -0.3889589297   -0.6059482455    1.2981627896
 C   -1.3062052650   -0.7721592026    0.0999992855
 H    0.3950466121    1.8600294612    0.3961427209
 H    1.1382224540   -1.6086028511   -0.7562239204
 H    0.9147177829   -0.2985219373   -1.9135386092
 H    2.4351626488    1.1635417896   -0.5729950930
 H    2.6598961085   -0.1277813340    0.6047155902
 H    3.7494803327   -1.5651533254   -1.1535465032
 H    3.4159449909   -0.3080728185   -2.3626905605
 H    4.9117960000    1.3046889696   -1.0912305476
 H    0.1835854547   -1.4635937862    1.6357782800
 H   -0.7243026914    0.0574121688    2.0876990517
 H   -2.2317079011   -0.2086960746    0.1027436416
 H   -1.3599224750   -1.7426249460   -0.3810680846