16

 O    0.2914005663    1.4474034402    0.1188409612
 C    0.1060879870    0.0681103223    0.0464354313
 C    0.0640498136   -0.6775022185    1.3946084683
 C   -0.9782544050    0.1060738868    2.2166360217
 C   -2.0995239549    0.1583685184    1.1177710652
 C   -2.5710392910    1.4831403498    0.7381011002
 N   -2.9756365728    2.5133546263    0.4031240473
 C   -1.3076381904   -0.5807092944   -0.0040241315
 O   -0.7471005693   -1.6970486472    0.7267505129
 H    0.0570156908    1.8553206294   -0.7213123956
 H    0.7747239650   -0.4336184590   -0.6612141637
 H    0.9493148627   -1.0638641648    1.8965865748
 H   -1.3006756319   -0.4464175259    3.0996469421
 H   -0.6244326631    1.0957931445    2.5053730535
 H   -2.9629544495   -0.4472169876    1.4029934536
 H   -1.8375802376   -0.8484537701   -0.9171596513