21

 C   -0.0065023530    1.5452193446    0.0199754162
 C   -0.0168133831    0.0416255029   -0.0413379601
 C    0.0356823725   -0.6268391696   -1.1982199529
 C    0.0241627283   -2.1310878115   -1.3133629819
 C    0.3622068528   -2.8148242068    0.0126198368
 O    1.7666717079   -2.7832559757    0.2979317228
 C   -0.3995232169   -2.1763029155    1.1806208353
 O   -0.1083778297   -2.8543750958    2.3894304889
 C   -0.0728164287   -0.6765648565    1.2891887925
 H    0.8277938652    1.9116372819    0.6322632425
 H    0.0778068161    1.9929056771   -0.9738332400
 H   -0.9227175375    1.9248185377    0.4901744313
 H    0.0785086577   -0.0678780173   -2.1307914143
 H   -0.9613108571   -2.4739463399   -1.6604064819
 H    0.7393587587   -2.4660258358   -2.0749687153
 H    0.1113511742   -3.8793416500   -0.0290560808
 H    2.0816357614   -1.8952397587    0.0922297065
 H   -1.4751620877   -2.3018124810    1.0067549749
 H    0.8469871409   -3.0021411764    2.3719710197
 H    0.8928700857   -0.5663425400    1.8055817211
 H   -0.8024379778   -0.1947654637    1.9508394090