20

 C    0.3136855213    1.4778325336   -0.2868505393
 C   -0.0902992125    0.0735936452    0.1514017701
 O    0.1585605070   -0.8568430398   -0.9290597282
 C    1.2720792842   -1.6135536140   -0.6875971572
 N    1.7250378095   -2.4933187295   -1.4711741074
 C    1.8637048330   -1.2284913129    0.6522569526
 C    0.7130844662   -0.4961536953    1.3195181323
 C    0.8142784329    0.1891179601    2.6495557805
 C    0.0122033841   -1.0853484557    2.5165723516
 H    1.3914983727    1.5405201672   -0.4659470562
 H   -0.2044332088    1.7471349804   -1.2111962580
 H    0.0506939278    2.2099859495    0.4825159875
 H   -1.1671962870    0.0405054274    0.3470931581
 H    1.1491914604   -2.5497324722   -2.3133312183
 H    2.2154590106   -2.1077898914    1.1933922407
 H    2.7286115614   -0.5738761053    0.4882222375
 H    1.7638655554    0.1477259479    3.1729033130
 H    0.2716099601    1.1176847853    2.7954073762
 H   -1.0695656622   -1.0117910380    2.5654520480
 H    0.4176173541   -1.9947300026    2.9477144465