20

 C   -0.0855033767    1.5015756727    0.0515021198
 C   -0.0107343163   -0.0221277576   -0.0530610629
 C    0.8628609444   -0.5650884986   -1.1887332642
 N    1.9411790164   -1.0631437273   -0.1996436471
 C    1.0552173251   -0.6440080118    0.8685971318
 O    1.2323387503   -0.6892392379    2.0473067716
 C    1.1723425034   -2.0040517579   -1.1006575802
 C    0.2324148671   -3.0363147928   -0.5092413639
 C    2.0786877601   -2.5639138641   -2.1800720950
 H    0.9051805961    1.9554253173   -0.0516471581
 H   -0.7330158967    1.9139415923   -0.7285176815
 H   -0.4912064464    1.7927476292    1.0240415820
 H   -1.0112026171   -0.4570238861    0.0327484662
 H    1.1707819423    0.0332871875   -2.0403337178
 H   -0.4340553901   -2.6341658790    0.2552068664
 H   -0.3851038853   -3.4712253216   -1.3022387553
 H    0.8103630627   -3.8467472486   -0.0535090472
 H    2.6689263428   -3.3974950888   -1.7873197487
 H    1.4830720316   -2.9336688049   -3.0218206403
 H    2.7704468664   -1.8018354019   -2.5453306356