13

 C   -0.0225754863    1.4953879580    0.1225982737
 O    1.2632409730    2.0058026307   -0.3511365775
 C    2.2532179181    1.1995202908   -0.7719215258
 N    2.2801850204   -0.0794889592   -0.8420817861
 C    1.0968282028   -0.6245782619   -0.4095233251
 C   -0.0065936483    0.0071243651    0.0470053012
 N   -0.9754259680   -0.9215341247    0.3786048627
 C   -0.4054279728   -2.0557579332    0.1052920760
 O    0.8613211157   -1.9652555772   -0.3809560680
 H   -0.1566355941    1.8746810914    1.1429960178
 H   -0.7954394803    1.9516688901   -0.5079086355
 H    3.1117201837    1.7906599904   -1.0765850671
 H   -0.8091687938   -3.0491565403    0.2152532037