15

 C   -0.0713355821    1.5363091340   -0.1079832590
 C    0.0489072308    0.0360769136    0.0411292247
 C    1.3121670579   -0.7338403835   -0.1600135801
 O    2.4569494434    0.0122130930    0.2952330370
 C    1.9784342079   -0.0689763219    1.6586521951
 C    1.9594121672    1.2116016360    2.3740559566
 N    1.9484331241    2.1991810754    2.9739625167
 C    0.6655757904   -0.7149472850    1.2126794952
 H    0.8814192297    2.0340092510    0.0797416253
 H   -0.3815284938    1.7855417465   -1.1279159366
 H   -0.8142340138    1.9467572197    0.5822019921
 H   -0.8113387423   -0.5240235498   -0.3237316907
 H    1.4955824549   -1.5245673137   -0.8773368041
 H    2.6016882735   -0.7699477898    2.2269627374
 H    0.1500010721   -1.4846418455    1.7695241205