21

 C    0.0201531288    1.5813464993    0.0217756750
 C    0.0175902693    0.0510673772   -0.0068912175
 C    0.6835250158   -0.5098350189   -1.2734909937
 C    0.5691464574   -2.0381917414   -1.3444568285
 C    0.9212915305   -2.6864667110   -0.0294886908
 C    1.2150342207   -4.1294427082   -0.0116757271
 O    1.1989684545   -4.8461341730   -0.9877609045
 C    0.9837779511   -2.0029420754    1.1234972049
 C    0.6970214511   -0.5360960074    1.2440668381
 H    1.0440466096    1.9722861884   -0.0132616511
 H   -0.5223650106    1.9934136458   -0.8352393104
 H   -0.4511201712    1.9657332407    0.9328977012
 H   -1.0274501445   -0.2912676598   -0.0040212317
 H    0.2359845993   -0.0585063013   -2.1658906114
 H    1.7437412742   -0.2207860301   -1.2755473336
 H   -0.4512499934   -2.3321945474   -1.6265948049
 H    1.2119687750   -2.4508677827   -2.1289013118
 H    1.4627644893   -4.5357122788    0.9959732620
 H    1.2655678275   -2.5330074241    2.0328926960
 H    1.6443283404   -0.0074583495    1.4386794233
 H    0.0824895051   -0.3525674325    2.1354561863