12

 N   -0.0399603372    1.2671772172    0.3359246172
 C   -0.0170558010    0.0605910330   -0.0391709503
 O    1.1562504277   -0.5645470500   -0.4516569874
 C    1.1068290599   -1.8678392827   -0.8429300849
 C   -0.0425009838   -2.5740945214   -0.8440918348
 N   -1.2449330488   -2.0114831925   -0.4452768305
 C   -1.2176605337   -0.7804881876   -0.0720721395
 C    2.3657122246   -2.4008109507   -1.2432182627
 N    3.3802485352   -2.8505063376   -1.5720111630
 H    0.8849307200    1.6970935250    0.2942889164
 H   -0.0554974296   -3.6087050200   -1.1596421187
 H   -2.1361206432   -0.2963593327    0.2492727782