20

 C   -0.1093060728    1.5177895190   -0.0983315033
 N   -0.1535086511    0.0589604725   -0.0816643611
 C   -1.2043978211   -0.6498784915    0.7552530729
 C   -0.3000150350   -1.9050496119    0.6207961549
 C    0.6111092129   -0.7022269225    0.9875474770
 C   -0.4403221861   -0.3307800550    2.0721467516
 C   -0.5154989186    0.9374396639    2.9456024987
 O   -0.6907862026    0.1509217686    4.1379982193
 C   -0.6321733440   -1.0864195617    3.4013253468
 H   -0.2175262973    2.0356209403    0.8638191071
 H    0.8456456000    1.8260832596   -0.5373559068
 H   -0.9039851210    1.8765182475   -0.7612934370
 H   -2.2721522020   -0.5548826562    0.5459571692
 H   -0.4178798552   -2.6948341816    1.3640152856
 H   -0.1808005666   -2.2791983931   -0.3952542139
 H    1.7007880501   -0.6694356625    1.0542923172
 H    0.3969560489    1.5463049502    2.9896672548
 H   -1.3736102968    1.5974151661    2.7630964556
 H   -1.5612149077   -1.6650202337    3.4940929002
 H    0.2093300861   -1.7160314980    3.7206435711