15

 O    0.2002750631    0.0503460932   -0.1936320008
 C    0.2393834195    1.2380927867   -0.2836893533
 O    0.8121462048    2.0222505635    0.6535949968
 C    0.8364216287    3.4327755047    0.4325196715
 C    2.2615290141    3.8924800757    0.1388977494
 C    2.3367766675    5.4260728585    0.0067087635
 C    3.6912556454    5.8928698910   -0.2781424252
 N    4.7670101054    6.2477337872   -0.5046867632
 H   -0.1871758609    1.8203154756   -1.1249258536
 H    0.1597834344    3.6990213782   -0.3912818707
 H    0.4530732781    3.9010728258    1.3451129197
 H    2.9206750151    3.5556892358    0.9441978425
 H    2.6168448592    3.4232548606   -0.7840960866
 H    1.6755404276    5.7765068475   -0.7949729678
 H    1.9919176679    5.9064346662    0.9301493080