23

 C   -0.2079726332    1.6051761722   -0.4908818898
 C    0.0174499020    0.2139602931    0.1135046074
 C   -1.2796431964   -0.5443511578    0.3163712899
 C   -1.8913445114   -1.3579768031   -0.8012217656
 C   -1.3594012062   -2.0486474768    0.4351487851
 C   -0.1457626634   -2.9564030520    0.3663488497
 C   -0.5301115731   -4.3719670938    0.0019224995
 C    0.1505983789   -5.5435924971    0.5647504285
 O   -1.1393516135   -5.1513568765    1.0376630692
 H    0.7379157226    2.1398925507   -0.6229437437
 H   -0.6962908195    1.5338831703   -1.4683969433
 H   -0.8489167876    2.2161577422    0.1543135412
 H    0.6891671158   -0.3560277497   -0.5386068727
 H    0.5388125281    0.3146391536    1.0748687707
 H   -1.9926110076   -0.0075760702    0.9394158382
 H   -2.9626691269   -1.3187790694   -0.9650565170
 H   -1.3090145427   -1.4556501665   -1.7139107225
 H   -2.1135308064   -2.4162475191    1.1262315020
 H    0.5721033658   -2.5873849343   -0.3755978729
 H    0.3709528542   -2.9740823476    1.3340222240
 H   -1.0147262351   -4.4856121381   -0.9697471566
 H    0.1812134998   -6.4782184152    0.0059815795
 H    0.9695752659   -5.3997072150    1.2690808394