17

 C   -0.0202556066    1.4678382804    0.0270272971
 C   -0.0000843699   -0.0255974848   -0.0181585991
 C   -0.0330306436   -0.8109784597   -1.1198761919
 C    0.0054901600   -2.1942889795   -0.6781874715
 C    0.0626577210   -2.2767202187    0.7016378083
 C    0.0640747750   -0.8788085934    1.2516601048
 C    0.0944234899   -3.6527020292    0.9782647148
 N    0.0595101432   -4.3749196215   -0.1480305210
 N    0.0051374809   -3.4582933005   -1.1514938446
 H    0.8750296477    1.8670487851    0.5209081587
 H   -0.0696616372    1.8964933342   -0.9776328907
 H   -0.8812957507    1.8410733026    0.5963055327
 H   -0.0797855278   -0.4629993018   -2.1437124591
 H    0.9624786894   -0.6391410914    1.8360459947
 H   -0.7909605468   -0.6652914922    1.9069507622
 H    0.1405632477   -4.1694940543    1.9259004574
 H   -0.0285080025   -3.7869301156   -2.1007711028