20

 C   -0.0825563947    1.6213825666    0.1444481752
 C   -0.0697160049    0.0985455840    0.2988046918
 C   -1.3490355765   -0.5589251934   -0.2393325688
 C   -1.3735482550   -2.0690326366   -0.0893856627
 C   -1.6549552811   -2.6943817766    1.2737497618
 C   -2.6915197851   -2.7856057732    0.2078681974
 C   -0.4562228611   -2.8445385336   -0.9601780925
 O    0.2762866766   -2.3724244839   -1.7955847176
 H    0.8369785732    2.0681648981    0.5349839180
 H   -0.1709806005    1.9108902180   -0.9084533480
 H   -0.9253737166    2.0708400280    0.6824028661
 H    0.7916363071   -0.3197608739   -0.2311858662
 H    0.0538707462   -0.1637736615    1.3575838964
 H   -2.2210842200   -0.1356687417    0.2754251684
 H   -1.4606460050   -0.3127773746   -1.3021061797
 H   -1.1117681192   -3.5938031916    1.5451212417
 H   -1.8086311344   -2.0005528540    2.0925580136
 H   -3.5702164281   -2.1542773134    0.2750120305
 H   -2.8656597045   -3.7479064977   -0.2623579182
 H   -0.4973586363   -3.9481438890   -0.7930019074