16

 C   -0.0117503416   -1.1850784127   -0.0413362633
 C   -0.0379907153    0.0139172643    0.0328997031
 C   -0.0233813250    1.4672475517    0.1166307469
 C    1.3955712780    2.0329716605   -0.0964805434
 N    1.4117594184    3.4807466739   -0.0190462754
 C    1.9843664824    4.2903199298    0.8964397870
 N    1.7457815324    5.5571368922    0.6114536007
 C    0.9972297656    5.4641366358   -0.5208354087
 N    0.7655854271    4.2316986295   -0.9450251474
 H   -0.0088271547   -2.2449943743   -0.1070022004
 H   -0.6853282435    1.9044494621   -0.6384931579
 H   -0.3982967370    1.7958164916    1.0935320116
 H    2.0779785542    1.6518736198    0.6667682407
 H    1.7735505641    1.7279063612   -1.0754722132
 H    2.5578814220    3.9153922848    1.7311830514
 H    0.6155273026    6.3251260898   -1.0490028218