23

 C    0.4667906792    1.1253391678    0.3053093713
 O   -0.3001832890    0.0988740536   -0.2919352039
 C    0.3963459221   -0.5718081208   -1.2984575002
 C    1.3954314067   -1.6538944958   -1.0221221845
 C    0.9580157365   -2.4873521848    0.1899235766
 C   -0.3585850508   -2.8974533198   -0.5622706051
 C   -0.2809496415   -4.3534823382   -1.0320710510
 C   -1.6900019941   -2.6339093097    0.1413281252
 C    0.0404531996   -1.9549368929   -1.7202019105
 H    1.3861218900    0.7324749567    0.7622081524
 H    0.7482164003    1.8964484103   -0.4282552356
 H   -0.1528984233    1.5838886384    1.0793477392
 H    0.6729769226    0.0797960944   -2.1316810398
 H    2.3939597292   -1.6381998111   -1.4437119182
 H    1.6094275820   -3.3400373859    0.3938881503
 H    0.8195457291   -1.9199923098    1.1147894965
 H   -0.3614302662   -5.0400197199   -0.1816892041
 H   -1.0971403431   -4.5846416711   -1.7267493768
 H    0.6640713358   -4.5587521570   -1.5463410552
 H   -1.7559515703   -1.6031610388    0.4903011390
 H   -2.5299061904   -2.8193602139   -0.5388972462
 H   -1.8104888652   -3.3054553726    1.0002226301
 H   -0.1556886892   -2.1790434489   -2.7644738496