21

 C   -0.1241282011    1.4986853240    0.1763831247
 C    0.0398298900   -0.0246517289    0.1976803615
 C   -1.2891291605   -0.7486479978    0.0883353835
 O   -2.0179341579   -0.4546714191   -1.1504026686
 C   -2.2105455877   -1.8560627981   -1.3800724464
 C   -3.5625658424   -2.2690094078   -1.8942951695
 O   -3.6408699635   -3.6524355167   -2.1870734483
 C   -0.8971655326   -2.5339885546   -1.6182284897
 C   -1.3599818059   -2.2481039479   -0.1968061860
 H    0.8453181946    2.0014664212    0.2401485515
 H   -0.6151558234    1.8167523502   -0.7476298330
 H   -0.7362930959    1.8438598585    1.0169308851
 H    0.6970924865   -0.3417867694   -0.6192777475
 H    0.5200122520   -0.3433617321    1.1324102247
 H   -1.9342818272   -0.4821162077    0.9372677143
 H   -4.3276565824   -2.0696817044   -1.1366141132
 H   -3.8057032761   -1.6442991422   -2.7689963111
 H   -3.0905111678   -3.8167236932   -2.9593910573
 H   -0.9541146541   -3.5864860749   -1.8773274776
 H   -0.0762504250   -1.9866317989   -2.0722122946
 H   -1.4994194796   -3.0298106102    0.5374462275