21

 C    0.0236946959    1.5423879740    0.1931177748
 C   -0.0804053681    0.0183223708    0.0069174194
 C    0.8161964919   -0.7238182169    1.0136881756
 C   -1.5080641742   -0.4507214680    0.0903473780
 N   -2.0892024940   -1.0331327552   -0.9597805749
 N   -3.3435435936   -1.3261724847   -0.5577628540
 C   -4.2551239790   -1.9764090881   -1.4718376558
 C   -3.5716422466   -0.9437728693    0.7219250977
 C   -2.4061751359   -0.3701994912    1.1822694955
 H    1.0611831462    1.8763153420    0.0848137275
 H   -0.5853185992    2.0726653476   -0.5448370705
 H   -0.3206554616    1.8424019035    1.1891887401
 H    0.2615639723   -0.2283233928   -1.0045889851
 H    0.5052262585   -0.5191500320    2.0442963512
 H    0.7710259075   -1.8058904783    0.8595805305
 H    1.8594471435   -0.4063778571    0.9113370695
 H   -3.8569631478   -2.9466659513   -1.7819052461
 H   -5.2131816083   -2.1248421263   -0.9706542850
 H   -4.4063014832   -1.3595346593   -2.3620858907
 H   -4.5277696780   -1.1071612704    1.1946721730
 H   -2.2318470163    0.0447677130    2.1618725494