17

 C    0.6196304832    1.3466177097    0.0943093794
 C   -0.0781450560    0.0058590515    0.0420655476
 C   -1.5601430491   -0.0033445710    0.4192385738
 C   -1.7536654182    0.3804173553    1.8818540983
 O   -1.8906561870    1.5318017284    2.2383329215
 C   -1.7330673169   -0.7135312649    2.8341084829
 C   -1.7342097544   -1.6241420793    3.6213064345
 C    0.4290870831   -1.0549477583   -0.8413773389
 O    0.6684884166   -1.1007049160    0.5674637604
 H    0.5100526279    1.8094000026    1.0787577716
 H    1.6840025562    1.2229223658   -0.1182127874
 H    0.1901845159    2.0332409049   -0.6427851580
 H   -2.0944445394    0.7347668022   -0.1870820557
 H   -1.9746065241   -0.9975326892    0.2351126627
 H   -1.7263394388   -2.4223405273    4.3233037456
 H   -0.2508095324   -1.8139558068   -1.2269318603
 H    1.3065703335   -0.8642201677   -1.4581348380