21

 O    0.2227725426    1.0698957162   -0.6076730300
 C   -0.0293596741   -0.2971377727   -0.3150510878
 C   -1.4771533254   -0.4132645963    0.1615903136
 C   -2.5199329148   -0.0089661305   -0.9286362316
 C   -3.1857379168   -1.2941293092   -1.3903011446
 C   -2.2982742477   -2.4249720968   -1.8860957265
 C   -2.7717452262   -2.4224102916   -0.4678313635
 O   -3.6198216549   -3.4737989955   -0.1137215438
 C   -1.8510130017   -1.8535082056    0.6056893842
 H    1.1077267988    1.1412166143   -0.9765109310
 H    0.1440544382   -0.9266011680   -1.2016957605
 H    0.6426037751   -0.6618555792    0.4787005100
 H   -1.5584537453    0.2722737690    1.0107069149
 H   -3.2749310203    0.6579235669   -0.4980875539
 H   -2.0361916276    0.5498033565   -1.7360270180
 H   -4.1948723722   -1.2547188551   -1.7861419149
 H   -2.7785769917   -3.1557564850   -2.5274011495
 H   -1.2546821527   -2.2405654165   -2.1180069269
 H   -4.2207522769   -3.1527969387    0.5684410783
 H   -0.9693192359   -2.4822615670    0.7778763907
 H   -2.4049535204   -1.8291345951    1.5527617406