25

 C   -0.2112149170    1.5145499021   -0.0550365656
 C   -0.1195901324   -0.0185777832    0.0042692456
 C   -1.5180954544   -0.6470490354   -0.0346297279
 C    0.8051725445   -0.5150953149   -1.1087875127
 C    1.0098582188   -2.0206664270   -1.3732732933
 C    0.6086932533   -1.6833318611   -2.8333258311
 C    1.7728627087   -1.6632658991   -3.8195883608
 C   -0.6014400670   -2.4116434240   -3.3978053427
 O    0.2603230579   -0.3204627472   -2.4374688139
 H    0.7767740472    1.9774519831    0.0404395855
 H   -0.6391233929    1.8327078118   -1.0112420030
 H   -0.8450806016    1.9040628838    0.7477361208
 H    0.3664144189   -0.3002683209    0.9505539358
 H   -2.0096448732   -0.4261684094   -0.9865270950
 H   -1.4889579385   -1.7339373453    0.0896200506
 H   -2.1405695160   -0.2438907864    0.7703292215
 H    1.7647090451    0.0170463913   -1.0165369737
 H    2.0219359581   -2.4025844582   -1.2268101758
 H    0.3017675883   -2.6746218148   -0.8611923272
 H    2.0970647099   -2.6814724580   -4.0614819337
 H    1.4744170183   -1.1678593073   -4.7490487606
 H    2.6270700849   -1.1204853058   -3.4042903691
 H   -1.4297720875   -2.4065058365   -2.6848316951
 H   -0.9407963238   -1.9275046675   -4.3196624938
 H   -0.3505167695   -3.4521416600   -3.6317598750