17

 C   -0.0733322364    1.5232588720   -0.0203006219
 C   -0.0164717544    0.0182826330   -0.0318997776
 C    0.0231827408   -0.7472902925    1.2641466694
 C    1.3546668642   -0.5407702180    2.0314102319
 C    1.3723289277   -1.2334865022    3.3130733363
 C    1.3580440700   -1.8145188398    4.3651611856
 N    0.0038438126   -0.6845643586   -1.1000965955
 O   -0.0218069295    0.1216622495   -2.2501891948
 H    0.8476860914    1.9507433765   -0.4315879655
 H   -0.8882105792    1.8735550707   -0.6606616955
 H   -0.2186805498    1.9108016676    0.9901988630
 H   -0.8040079452   -0.4243994490    1.9078334143
 H   -0.1121155205   -1.8103879856    1.0544204848
 H    2.1829186136   -0.8950360176    1.4056874096
 H    1.5290188107    0.5303347172    2.1942297721
 H    1.3593703796   -2.3243719330    5.2963965269
 H   -0.0304821454   -0.5339715702   -2.9553235833