18

 C   -0.0343235865    1.4353321703   -0.2536526095
 C   -0.0586460704   -0.0761859107   -0.1358333082
 O    0.8267788031   -0.6044771946   -1.1419589725
 C    0.9573880620   -1.9397697177   -1.1863538476
 N    0.3393614768   -2.7285718849   -0.4160560236
 C    1.9472472091   -2.2930699373   -2.2844993947
 O    2.0926248857   -3.7022639014   -2.4029050618
 C    1.5419264184   -4.3067049462   -3.4818171537
 O    1.5850540906   -5.4855436627   -3.6458881755
 H    0.9749936603    1.8245711101   -0.0926468599
 H   -0.3739492264    1.7572292155   -1.2422658252
 H   -0.6968122000    1.8750350302    0.4976489563
 H    0.2789931287   -0.4207201528    0.8467835094
 H   -1.0604141740   -0.4872545730   -0.2965075422
 H    0.6028501279   -3.6923814758   -0.6152073462
 H    1.6172128976   -1.8452344023   -3.2299296679
 H    2.9295463159   -1.8757680793   -2.0455270472
 H    1.0680166213   -3.5872932073   -4.1773747600