20

 C   -0.4148756935    1.4241324048   -0.1982791376
 C   -0.0499947371   -0.0347347287   -0.0265093173
 N    1.2999855795   -0.5872670166   -0.2811959556
 C    2.3761405261    0.3988487374   -0.3402299917
 C    2.4736572653    1.1008123096    1.0238696161
 O    3.1804293695    2.0348609301    1.2936137587
 C    1.5082324463    0.3817089814    1.9777264611
 C    0.7385024507   -0.5963273264    1.1089323456
 C    0.3950436238   -1.9449617315    1.6937846605
 H   -0.4654548085    1.6846697927   -1.2613927485
 H   -1.4062644142    1.6055775818    0.2299523306
 H    0.2779439253    2.1200352896    0.2800449489
 H   -0.8145200245   -0.6982412390   -0.4299924068
 H    3.3256248678   -0.1134668131   -0.5401007623
 H    2.2370326130    1.1346347245   -1.1389563105
 H    2.0989251236   -0.1451417890    2.7371037163
 H    0.8917136266    1.1132120977    2.5080916122
 H   -0.3176737455   -1.8440667645    2.5203584717
 H   -0.0484919147   -2.5927675671    0.9334480836
 H    1.2907356804   -2.4432469737    2.0820977552