15

 O   -0.0989286608    0.0460424798    0.3913533627
 C   -0.0660533010    1.1724369927    0.0498526190
 O   -1.1719302394    2.0268200765   -0.2586390682
 C   -0.2204465921    2.8799914256   -1.0401148440
 C    0.6876314661    4.1818771272   -1.0043042436
 C    0.7389894397    4.6672862902    0.4360408342
 C    0.9124162709    3.2703412643    1.0885745639
 C    0.8752159223    2.4007012961   -0.1993016589
 O    1.8146947983    3.1917870496   -1.0741512444
 H   -0.2049930944    2.4899816342   -2.0567314245
 H    0.6989386921    4.8771556524   -1.8427885128
 H    1.5900612131    5.3297286394    0.6032450201
 H   -0.1761831366    5.1827923974    0.7371086551
 H    1.8803690732    3.1354568188    1.5752691604
 H    0.1236660886    3.0191924159    1.7992447410