18

 N    0.7058631075    1.3758248399    0.2062264847
 C    0.0602055361    0.0674634947    0.0696456015
 C    0.3353981094   -0.6276492038   -1.2960736148
 C   -0.0023692530    0.2423399077   -2.4187257617
 N   -0.2744189031    0.9759053082   -3.2697003553
 C    0.4848046057   -0.8661845161    1.2143334421
 C   -0.0455651144   -0.5254873720    2.6164691968
 N   -0.0902228304    0.7979716184    2.9128966314
 O   -0.3712725265   -1.4056732530    3.3905806443
 H    1.7128308134    1.2894481277    0.0906707285
 H    0.3777407687    2.0138959782   -0.5133308010
 H   -1.0199891008    0.2417149857    0.1358475307
 H    1.3954476900   -0.9012991991   -1.3674480845
 H   -0.2413327836   -1.5557636329   -1.3742576028
 H    0.1510639322   -1.8871969973    1.0167665044
 H    1.5826184116   -0.8973156942    1.2637244320
 H    0.1815453370    1.4841706178    2.2192398755
 H   -0.4292926498    1.0697898501    3.8208539782