18

 C   -0.0913123327    1.6880080438    0.1540829147
 C   -0.0624380193    0.1773581993    0.0578748115
 C   -1.3717994658   -0.4586014043   -0.4082656981
 C   -1.7302471179   -0.0702421407   -1.7745401487
 N   -1.9993401705    0.2461581491   -2.8528243599
 C    1.2137158338   -0.5107634323   -0.3324202708
 C    0.7109731114   -0.6287450723    1.1025282317
 C    1.4026351754    0.0149806320    2.1797255106
 C    1.9792752336    0.5465327287    3.0920675589
 H    0.8567666814    2.0744731497    0.5328831710
 H   -0.2795093393    2.1324220416   -0.8285403060
 H   -0.8821430597    2.0225965607    0.8349804899
 H   -1.3035856398   -1.5514066561   -0.3711015406
 H   -2.1924672786   -0.1690925867    0.2595378546
 H    1.1649570615   -1.4014443222   -0.9495781261
 H    2.0891359627    0.1060549514   -0.4979462777
 H    0.2747521412   -1.5893607307    1.3647601211
 H    2.4905838424    1.0140176292    3.8967472737