21

 C   -0.1328035712    1.7468893713    0.4094950625
 C   -0.0367815048    0.2712700049   -0.0017297602
 C    0.7979477989   -0.5469464834    1.0187003019
 C    2.1799434049   -0.0855869797    1.1275176666
 N    3.2708062011    0.2907125159    1.1935233545
 C   -1.4244271957   -0.3373861591   -0.1185815987
 C   -2.2299636322   -0.1919371841   -1.3644121094
 N   -1.7584020342   -1.5040797072   -0.9393325814
 C   -0.7482241883   -2.1537162020   -1.7613975434
 H    0.8604218257    2.1900834003    0.5243833022
 H   -0.6799821882    2.3211460690   -0.3429836877
 H   -0.6625253700    1.8540635512    1.3632075419
 H    0.4724721656    0.2168914251   -0.9691471898
 H    0.3306863654   -0.4888308134    2.0095646287
 H    0.8085247462   -1.6053148096    0.7384920440
 H   -1.9655668524   -0.3323169037    0.8296496486
 H   -3.3034559520   -0.0262493820   -1.3236868190
 H   -1.7326938300    0.2726928606   -2.2167918367
 H   -0.0251206587   -1.4720235829   -2.2353808842
 H   -0.1947223510   -2.8816818631   -1.1589632481
 H   -1.2568998090   -2.7030340082   -2.5597493325