21

 C    0.0135561104    1.5307554263   -0.0400075951
 C    0.0409514190    0.0173890683   -0.0005173173
 C    0.4647849095   -0.6890672152   -1.2947404439
 C    0.3934602686   -2.1740709213   -0.8530599911
 O    1.6523723390   -2.8357915047   -0.8185615185
 C   -0.0922946772   -1.9880361879    0.5740833742
 C    0.6564165771   -0.7739284436    1.2132243702
 C   -0.6125714739   -0.4813942185    2.0503007980
 C   -1.1307726719   -0.8248666609    0.6326091231
 H    1.0087665295    1.9284301891   -0.2703521882
 H   -0.6671112202    1.8856642088   -0.8227764413
 H   -0.3094288958    1.9751065078    0.9053215337
 H   -0.2100659233   -0.4547689233   -2.1262203627
 H    1.4831106938   -0.4223728525   -1.5991425630
 H   -0.3228201876   -2.7514638889   -1.4564280602
 H    1.9655002444   -2.9265099364   -1.7237357762
 H   -0.2596217931   -2.8810304179    1.1778391261
 H    1.6970348549   -0.7575678324    1.5411959208
 H   -0.8478397517   -1.2025935388    2.8380305029
 H   -0.7613707318    0.5386836016    2.4109066633
 H   -2.1674762798   -0.8589841096    0.2875844352