15

 O    0.2128945290    1.3662295734   -0.2843347783
 C    0.0552016676   -0.0080017567   -0.0112153403
 C    0.6748517944   -0.5036414144    1.2758166157
 C   -0.1468003967   -1.2886195318    1.9816973517
 C   -1.4642549242   -1.4256546133    1.3209697958
 C   -2.3382882929   -2.6163535263    1.3086206400
 O   -2.6650484347   -1.4833145499    2.0983732140
 C   -1.4191763830   -0.4702746229    0.1383256589
 O   -2.3565749277   -0.0936780869   -0.5091437713
 H   -0.3130428797    1.8637199691    0.3518785266
 H    0.4887709685   -0.5249703993   -0.8783765081
 H    1.6896425713   -0.2408163419    1.5503416070
 H    0.0790109967   -1.7701057106    2.9256642980
 H   -2.9769477576   -2.7820663543    0.4420550340
 H   -2.0272551112   -3.5054252142    1.8561791364