21

 O    0.0233697400    1.4015771084    0.1112755114
 C    0.0378487602   -0.0045818823   -0.0177349856
 C   -1.3749148461   -0.5768848057   -0.0346933170
 C   -1.4203798458   -2.1020662544   -0.1517987705
 C   -2.8558498203   -2.6084338793   -0.0184572373
 O   -2.8075389905   -4.0274098674   -0.0215248453
 C   -3.4899194510   -2.0430461017    1.2587657404
 C   -3.3355798524   -0.5202603685    1.2985652920
 O   -1.9749731139   -0.1409934600    1.1864325183
 H   -0.5778115965    1.5856964957    0.8432025866
 H    0.5445530500   -0.2405461556   -0.9591983349
 H    0.6029110852   -0.4811063308    0.8001626059
 H   -1.9246827954   -0.1216568726   -0.8771224585
 H   -0.9996962103   -2.4240292829   -1.1102796130
 H   -0.8158442416   -2.5511777956    0.6451509051
 H   -3.4349892276   -2.2459910159   -0.8861674970
 H   -3.7066641008   -4.3573264009    0.0772698009
 H   -4.5533459595   -2.3096508309    1.3148225084
 H   -2.9872777395   -2.4864266384    2.1259418690
 H   -3.9241466065   -0.0571230652    0.4881530280
 H   -3.6937706378   -0.1110831461    2.2473521131