14

 O   -0.1077022509    0.0091395725   -0.1912866695
 C    0.0125419288    1.1384286589    0.2130817898
 C    1.2753750551    1.9167998694    0.0920941922
 N    1.5072152311    3.1412807728    0.9340706344
 C    2.5959463264    3.4844676901   -0.0422860493
 C    3.4909441524    2.2739887832    0.0877782242
 C    2.6245702191    1.2496609513    0.1558565663
 C    1.6112606455    2.9297698772   -1.1660057481
 O    1.1767882944    3.2203333886   -2.2218099797
 H   -0.8359531165    1.6868532838    0.6795553206
 H    0.7260456176    3.7918504921    0.8050775571
 H    3.0046786818    4.4920542855   -0.0400196677
 H    4.5688409563    2.2718278919    0.0336449734
 H    2.7813027689    0.1823898627    0.1717221762