18

 C    0.6592947235    0.8406940795    0.3316039823
 O    0.1968000794   -0.4201773865   -0.1225910526
 C   -1.2239949739   -0.5634844043   -0.0905776552
 C   -1.5841750838   -1.8846924232   -0.7934854056
 C   -1.3787077250   -1.9186569563   -2.3128674230
 N   -0.2060635253   -1.3864398235   -2.7503978709
 O   -2.2062230118   -2.4135761481   -3.0538020527
 C   -1.7332669208   -0.5482766706    1.2855204617
 C   -2.1523886258   -0.5484319121    2.4119208934
 H    1.7478436275    0.8271206123    0.2471421797
 H    0.2590275992    1.6599676158   -0.2837992486
 H    0.3790000146    1.0143889275    1.3775197647
 H   -1.6801855575    0.2760700409   -0.6413013974
 H   -0.9901343083   -2.6818638436   -0.3323872075
 H   -2.6363745439   -2.1110871459   -0.6193853109
 H    0.4519291625   -0.9941475404   -2.0956262843
 H   -0.0094271195   -1.4091493349   -3.7371254810
 H   -2.5275882310   -0.5469379067    3.4058555679