18

 C   -0.0520179890    1.4285913196    0.0039480840
 C   -0.0063447801   -0.0632523945   -0.0382096472
 N    0.9800869399   -0.8486737886   -0.8157185875
 C    0.1378896088   -2.0510095683   -0.4812132943
 C    0.4468363178   -2.2538074944    1.0259743715
 C   -0.3163071277   -0.9475641007    1.2195236067
 O   -0.8072330765   -0.3989064403    2.3860540831
 C   -1.0922554960   -1.1042442693   -0.0713597078
 O   -2.4225199059   -1.0280563364   -0.3859065049
 H    0.9223895136    1.8384634931    0.2941924382
 H   -0.3182716851    1.8529412168   -0.9704551490
 H   -0.7986689339    1.7623797814    0.7302080172
 H    0.8265357891   -0.6307251152   -1.8013009300
 H    0.1429454173   -2.8830619870   -1.1812022069
 H   -0.0992501025   -3.1005360356    1.4518364046
 H    1.5074359426   -2.3008620914    1.2898228013
 H   -0.0993978538    0.0913861601    2.8198568902
 H   -2.9242018889   -1.5520386393    0.2499220908