14

 O    0.1111557241   -0.0901481939   -0.2502579318
 C    0.1017621489    1.0827054775    0.0544693890
 C    1.2898230799    1.9010481733    0.1072688379
 C    2.2935554814    2.5637734082    0.1473605914
 C   -1.2178426734    1.7973415891    0.4185581864
 O   -1.2207680406    2.9783458540    0.6914292179
 C   -2.4409960975    0.9566768143    0.4098932544
 C   -3.3189882954    1.0702110982    1.6271158986
 N   -3.7333352355    1.6603153697    0.3670985197
 H    3.1792529487    3.1513084418    0.1824517487
 H   -2.3814289523    0.0123406287   -0.1154069503
 H   -3.8701697826    0.1886075250    1.9401309517
 H   -2.9749790563    1.7231661102    2.4245521190
 H   -3.5325268793    2.6610088741    0.3922685074