16

 O    0.5976794934    1.0297312010   -0.6378100056
 C    0.1621064930   -0.1480070982   -0.0292314078
 C    0.1154462072   -0.2304641010    1.5319550338
 C   -1.3184891815   -0.8110382586    1.4433233523
 O   -2.3406623293   -0.0478492654    2.0803506067
 C   -2.8575607233    0.8627324548    1.2004464945
 O   -3.7281081368    1.6370556852    1.4735427340
 N   -2.1886667609    0.7347877179   -0.0119506637
 C   -1.3693589858   -0.4565287880   -0.0725515123
 H   -0.0274331030    1.7213702138   -0.3834922407
 H    0.7441229195   -0.9642316618   -0.4653934718
 H    0.8702860813   -0.8544366436    2.0133092933
 H    0.1177454042    0.7554240669    2.0036104023
 H   -1.4372804358   -1.8561043166    1.7261142930
 H   -2.6552639020    1.1046901699   -0.8244832736
 H   -1.7275785503   -1.1902332863   -0.7998293345