17

 N   -0.1041820229    1.3352691330    0.0780877251
 C   -0.1485520018   -0.0289967009    0.1821635932
 O    0.6925315952   -0.6784131804    0.7950187867
 N   -1.2141525506   -0.5991112100   -0.5166897997
 C   -2.6732363719   -0.4766767744   -0.0879501508
 C   -2.9397980440   -1.6753229506   -1.0296008479
 C   -1.6552582678   -2.0200555104   -0.2290868114
 C   -2.4056935395   -1.5373769841    1.0525184927
 O   -1.7179144480   -1.2060324471    2.2059393013
 H    0.7414062802    1.7706674324    0.4088200002
 H   -0.5806274385    1.7797164175   -0.6887799314
 H   -3.1755502065    0.4895062206   -0.0442349857
 H   -3.8242426615   -2.2795983607   -0.8267963233
 H   -2.7868634025   -1.4772229795   -2.0890516538
 H   -0.9713807194   -2.8577081402   -0.3543245435
 H   -3.2883749351   -2.1241197899    1.3293871520
 H   -0.7689167854   -1.1615517152    2.0076925864