22

 C    0.0060414419    1.6293816040    0.1356576937
 C    0.0050698581    0.1065396841   -0.0463892508
 C   -1.3964630903   -0.5217915027   -0.0823546344
 C   -2.1724655236   -0.1580254325   -1.3472766106
 O   -3.4917122166   -0.7219643321   -1.3348055989
 C   -3.6086382083   -1.9352636076   -0.7441905332
 N   -2.7497022374   -2.6157400311   -0.1142655120
 C   -1.4046718540   -2.0604076935    0.0673528385
 C   -0.4274040676   -2.8105723424   -0.8500311550
 H    1.0284793841    2.0134846810    0.2017099502
 H   -0.4812010613    2.1439359017   -0.6986440072
 H   -0.5177283572    1.9174906822    1.0536973702
 H    0.5510458424   -0.1532340989   -0.9619286044
 H    0.5659876240   -0.3505466900    0.7786652333
 H   -1.9688306973   -0.1228873935    0.7671322590
 H   -2.3171586301    0.9193864911   -1.4510025860
 H   -1.6493541108   -0.5175811611   -2.2439270725
 H   -4.6250964084   -2.3045777846   -0.8721364691
 H   -1.1182422730   -2.2945535907    1.1012593766
 H   -0.5941434736   -2.5659886099   -1.9043476580
 H    0.6126941941   -2.5804836572   -0.6023885666
 H   -0.5802315151   -3.8865368063   -0.7341994927