21

 C    0.1303112364    1.1947379429   -0.3161874196
 O   -0.0449086745    0.0559143863    0.5038968777
 C   -1.2649226631   -0.5734247486    0.2921739083
 C   -1.5402771973   -1.6004348270   -0.7908510058
 C   -0.3926792459   -2.6067872091   -0.9050702886
 C    0.9480760458   -2.2351719709   -1.5063002235
 O   -0.3534368498   -2.7910677081    0.5398050007
 C   -1.5161006878   -1.9789065969    0.7065652394
 C   -2.5373941242   -2.4553169648    1.6890199124
 H    1.1025388500    1.6253238764   -0.0657296602
 H    0.1152755972    0.9336480709   -1.3841159037
 H   -0.6505812580    1.9483958751   -0.1320494754
 H   -2.1297972184    0.0762151644    0.4575676477
 H   -2.3627397866   -1.5157792950   -1.4906563360
 H   -0.7644046306   -3.5358855650   -1.3587446450
 H    1.3592001413   -1.3516031131   -1.0178190551
 H    1.6552807531   -3.0623425418   -1.3845624202
 H    0.8392235109   -2.0411144035   -2.5791110618
 H   -2.1089732930   -2.4741912742    2.6976175833
 H   -3.4061422286   -1.7911251302    1.7013918995
 H   -2.8717635071   -3.4683588678    1.4447627260