17

 O    0.0115698079    1.3753056080   -0.2943125304
 C    0.0504241217    0.0562969166    0.2159556043
 C   -1.3254108481   -0.5891688600    0.1127896855
 N   -1.8719111131   -0.5286617243   -1.2798636837
 C   -2.1969896229   -1.9831665465   -1.2522964104
 C   -1.4725250158   -2.1425713609    0.1176848998
 N   -0.4532086794   -2.9172658614   -0.5874218580
 C   -1.0212373586   -2.8100044304   -1.8483299467
 O   -0.6733662611   -3.1876527189   -2.9305655049
 H   -0.2981316949    1.2867731879   -1.2052545241
 H    0.7863416353   -0.5576652815   -0.3244229617
 H    0.3681823172    0.1258460054    1.2620862307
 H   -2.0080034522   -0.1406005384    0.8444291994
 H   -2.6979734383    0.0519775283   -1.3562354798
 H   -3.2223281022   -2.2823587854   -1.4641845690
 H   -1.8920715812   -2.6223483875    1.0012135836
 H    0.4873104058   -3.1738213810   -0.3220401346