14

 O    0.0127019898    0.0344752684    0.1817882559
 C   -0.0364345580    1.2209263059    0.0054374749
 C   -1.2949585488    2.0395278485   -0.3079741804
 O   -0.8643459881    3.3453229854   -0.6914135790
 C    0.5139536313    3.4714572300   -0.5141965985
 C    1.0496338268    3.4026228641    0.9015347567
 C    0.1671188624    3.4389367826    2.0323111368
 N   -0.5534506280    3.4771971853    2.9363344160
 C    1.1192360869    2.1821504742   -0.0450454744
 H   -1.8499356574    1.5811108813   -1.1330387177
 H   -1.9448363805    2.0863321504    0.5733528340
 H    0.9789153988    4.1429613704   -1.2260609290
 H    2.0120556505    3.8752252938    1.0694085918
 H    2.0971989842    1.8080043597   -0.3160374571