15

 O    0.0905233842    1.4669891883    0.2048281634
 C   -0.0099398589    0.0729095909    0.0578725637
 C    0.1890538664   -0.7141904486    1.3675257922
 N   -1.1464729458   -1.4009463817    1.2462360043
 C   -2.1341769668   -0.3181278386    1.2601231050
 C   -1.4174755016   -0.5529155163   -0.0185860826
 C   -2.0280669505   -1.0472517884   -1.2050577688
 C   -2.5129432157   -1.4264924177   -2.2395703587
 H   -0.0816651979    1.8783044545   -0.6491437707
 H    0.6257264269   -0.2984562691   -0.7544815756
 H    0.9973234108   -1.4454335208    1.3307150565
 H    0.2860550340   -0.0973996976    2.2658642865
 H   -3.1574721579   -0.6748052936    1.3119189435
 H   -1.9255262734    0.5921457291    1.8185557191
 H   -2.9494662540   -1.7744667804   -3.1429229280