13

 O   -0.2631378813    0.4798873364    0.8122224547
 C    0.2708025132    0.8423131966   -0.2033409203
 C    1.4440007747    1.7757814259   -0.2081594528
 O    2.3018158409    1.7045558641   -1.3395666595
 C    1.5131542343    2.8973206715   -1.2108996226
 C    0.4611395865    3.0789764662   -2.1843174043
 C   -0.4096975267    3.2580259549   -2.9914658514
 C    2.2297019359    4.0925930564   -0.8360041614
 C    2.8156023095    5.0921747664   -0.5207055664
 H   -0.0548334033    0.5129607888   -1.2106859887
 H    1.9239715144    1.9379348497    0.7552224064
 H   -1.1792631564    3.4131754781   -3.7077132510
 H    3.3368548183    5.9767353451   -0.2469509928