16

 C   -1.0233740352    0.9550781751    0.0630653143
 C    0.3445477987    0.2734370488    0.0562775182
 N    1.1081645770    0.7574109745   -1.0954169028
 C    2.3426051113    0.6060864938   -1.2905275015
 O    3.3013149054   -0.0377711535   -0.5662215696
 C    2.8638488381   -0.8131559971    0.5291878492
 O    2.3036612403   -0.0354104090    1.5579751388
 C    1.0506970114    0.5050798552    1.4049970548
 O    0.5856246928    1.1278191764    2.3118710497
 H   -0.9073235988    2.0334033056    0.1902843965
 H   -1.5207321145    0.7657002089   -0.8906466260
 H   -1.6426440738    0.5775819832    0.8792479504
 H    0.1821276380   -0.8086506789   -0.0488037348
 H    2.8087806882    1.0465008555   -2.1701914134
 H    2.1712447566   -1.5906633272    0.1899908302
 H    3.7620885345   -1.2653459511    0.9475231460