21

 C    0.0095226039    1.4439436653    0.0386417663
 C   -0.0092856234   -0.0735174730    0.0238405281
 C    1.0766285325   -0.6596737709   -0.8698801632
 O    1.0697138859   -2.0700735905   -0.9951163248
 C   -0.2189748634   -2.6200343791   -1.2192155674
 C   -1.1642387195   -2.2408651478   -0.0850935377
 C   -0.4730835654   -2.2364683930    1.3211856295
 C   -0.5109335727   -0.7052144381    1.3094923381
 C   -1.3670819197   -0.7137350637    0.0364063823
 H    0.9463190774    1.8264872788    0.4608049065
 H   -0.0903055421    1.8512081777   -0.9741357086
 H   -0.8137182179    1.8425984345    0.6394435577
 H    0.9726945741   -0.1954052035   -1.8682183995
 H    2.0728578948   -0.4013976708   -0.4918917957
 H   -0.6263453453   -2.2863577606   -2.1895693746
 H   -0.0674582280   -3.7033270055   -1.2683043309
 H   -2.0890714593   -2.8194108324   -0.1297371061
 H   -1.1399893942   -2.6365028731    2.0893417184
 H    0.5014099015   -2.7234761316    1.3975620976
 H   -0.6368588918   -0.0874458457    2.1920666449
 H   -2.2784119674   -0.1716353973   -0.1893434909