15

 C   -0.2190785273    1.5330334515   -0.0264210892
 C   -0.0919724485    0.0473138190   -0.0620455087
 N   -0.2318501977   -0.6770352097   -1.1122458407
 C    0.0014577051   -2.0617221995   -0.6891822672
 C    1.1669123255   -2.6323198122   -1.5076156794
 O    2.1197393597   -3.1989333583   -1.0522167834
 C    0.2496722397   -2.0267204083    0.8262639921
 O    0.4371687910   -2.9176061157    1.6100747208
 N    0.1915200662   -0.6616978847    1.1036564648
 H    0.7078628921    1.9934820012    0.3326298851
 H   -0.4370281217    1.8990888001   -1.0294780313
 H   -1.0235892402    1.8383796524    0.6515991903
 H   -0.8773866506   -2.6837247147   -0.9105697237
 H    1.0451678958   -2.4449892860   -2.5951180734
 H    0.3337955310   -0.2736608751    2.0224487538