16

 C   -0.0053266581    1.5523593853    0.0395543232
 C    0.0058870788    0.0480235987    0.0207451021
 C   -1.1425949600   -0.6930891813    0.0578480207
 N   -2.3955364726   -0.1463589597    0.1438367276
 N   -1.1545042348   -2.0872186737    0.0522435195
 C   -0.0130054194   -2.6527495959    0.0080159996
 O    1.1810765852   -2.0574288812   -0.0328865803
 C    1.2698925028   -0.6406319046   -0.0316060533
 N    2.4179318904   -0.0994796737   -0.0759003816
 H    1.0165296668    1.9265394338    0.1026291178
 H   -0.4595342425    1.9709441728   -0.8695037053
 H   -0.5711565070    1.9385069195    0.8966993580
 H   -2.5190013088    0.8108872850   -0.1407862564
 H   -3.1536450404   -0.7744262792   -0.0700107904
 H    0.0797278014   -3.7352163636   -0.0020460106
 H    3.1538614383   -0.8026529522   -0.1053526208