21

 C    0.4263870749    0.5573776353    1.4528309361
 C    0.1629541410   -0.2115219541    0.1901103204
 N    0.8818007904   -0.0760137528   -0.8441107047
 O   -0.9212661130   -1.0257353019    0.3618218505
 C   -1.3428411645   -1.8373648055   -0.7274244640
 C   -2.5644859915   -2.6384220001   -0.3146649133
 C   -3.1406424910   -3.4679310057   -1.4417494009
 C   -2.6875887699   -3.0929138342    1.0919775357
 N   -3.5516630830   -2.0086091947    0.5732429574
 H    1.2934624236    1.2009102217    1.3129693578
 H   -0.4453645859    1.1645111250    1.7163861477
 H    0.6065567317   -0.1306537341    2.2846751281
 H    0.5815388558   -0.6629007180   -1.6206080779
 H   -1.5897208561   -1.2002486046   -1.5896792017
 H   -0.5315422539   -2.5143682495   -1.0306282531
 H   -2.4180581668   -4.2106786651   -1.7986797827
 H   -4.0355955818   -3.9917308044   -1.0994704196
 H   -3.4263092499   -2.8359665454   -2.2905642139
 H   -3.2027311894   -4.0240563867    1.3119008362
 H   -1.8974608653   -2.8262446394    1.7863655332
 H   -3.1779170855   -1.1212710359    0.9036521388