25

 C   -0.1240341926    1.6055028734    0.0991460640
 C   -0.1891710225    0.0782147174    0.1846536607
 C    0.8304052314   -0.5154748638    1.1626080349
 C    0.7699401455   -2.0437548051    1.2532069997
 C    1.7917950867   -2.6248791226    2.2410396361
 C    1.6801830771   -4.1292093563    2.4228951892
 C    1.9991507471   -4.9973967166    1.2240114603
 C    1.8112044720   -4.6996082728    3.7727083154
 O    0.5235113109   -4.5471690483    3.1705014644
 H    0.8646522186    1.9417330840   -0.2331102810
 H   -0.8631079536    1.9992254651   -0.6056753122
 H   -0.3169327538    2.0653468835    1.0748874562
 H   -1.1990543179   -0.2302008273    0.4854537467
 H   -0.0266204316   -0.3520086950   -0.8126186264
 H    1.8421691200   -0.2064387849    0.8632279941
 H    0.6677687148   -0.0855365826    2.1609607693
 H   -0.2344133546   -2.3561459264    1.5656399960
 H    0.9295149329   -2.4678712753    0.2534519460
 H    2.8106303054   -2.3789955926    1.9115443778
 H    1.6530647840   -2.1480956921    3.2183003848
 H    3.0287786465   -4.8322031762    0.8880136985
 H    1.8799043269   -6.0543700525    1.4740241571
 H    1.3325758320   -4.7722092539    0.3858796492
 H    2.1504622156   -5.7280408368    3.8959536247
 H    2.0121065593   -4.0451946821    4.6206253045