15

 C   -0.2332633023    1.0624815512    0.1853801186
 C    0.1513315495   -0.4322459983    0.2363152459
 N    0.7731745628   -0.8511529040   -1.0100907076
 C    0.0338524127   -1.2646246384   -1.9648339277
 N   -1.3368557855   -1.3638701123   -2.0407269110
 C    0.7011927585   -1.6534574682   -3.1963041998
 N    1.1945651164   -1.9795920342   -4.1886771062
 C    1.0947299796   -0.6753023180    1.3428481612
 N    1.8000281123   -0.8523916518    2.2396928968
 H    0.6495601924    1.6618555252   -0.0448432728
 H   -0.9813607022    1.2252740833   -0.5945733242
 H   -0.6427716147    1.3848886414    1.1457106785
 H   -0.7494843177   -1.0203586943    0.4831731419
 H   -1.8764380153   -1.3175868945   -1.1917571507
 H   -1.7278782263   -1.9381810070   -2.7703963729