23

 C   -0.1081217981    1.5758390264    0.0063575823
 C    0.0043326146    0.0469762608   -0.0038841703
 C   -1.4043057256   -0.5705998686   -0.0442494041
 C    0.8577601956   -0.4939602728   -1.1974037730
 C    1.6072749217   -1.6928375152   -0.6174617379
 C    2.5885214263   -1.4594988718    0.5222355367
 C    2.2876314281   -0.1356354207    1.2219246877
 C    0.7686836945   -0.5241060780    1.2145918423
 C    1.1842427144   -1.9646817627    0.8008749608
 H    0.8730086393    2.0584242647    0.0433159364
 H   -0.6186128200    1.9346442753   -0.8943922523
 H   -0.6855226398    1.9236706820    0.8706089890
 H   -1.9565996287   -0.2280943035   -0.9264575930
 H   -1.3582902589   -1.6636992045   -0.0824232823
 H   -1.9843776698   -0.2891695441    0.8421562468
 H    0.2204527889   -0.7898591356   -2.0372156951
 H    1.5450866176    0.2715671234   -1.5756276992
 H    1.8403890278   -2.5374278224   -1.2567804770
 H    3.5239665686   -2.0055381620    0.5674955686
 H    2.6852350004   -0.1247524205    2.2401732384
 H    2.5848201313    0.7929092667    0.7223657547
 H    0.2452633399   -0.3893802813    2.1627472136
 H    0.8383745619   -2.9095660355    1.1978873271