16

 O   -1.0001387880    1.1560602530   -0.0754831787
 C    0.1463479745    0.9368143165    0.2231842869
 C    1.2895476945    1.8838498674   -0.0516094930
 N    2.6166797656    1.2279378807   -0.3668758825
 C    2.4375861322    0.5541765974   -1.6724356219
 C    2.6457053627    2.0155928978   -1.6715174446
 C    1.3429850537    2.7083677762   -1.3444112561
 C    0.3095762771    3.3154213714   -2.1812615737
 O    1.1816144860    4.1042800083   -1.3452119147
 H    0.4481415390   -0.0003364536    0.7433131277
 H    1.4180531121    2.5352925261    0.8215016452
 H    3.2786807189   -0.0802278463   -1.9324095963
 H    1.4640887613    0.1483761533   -1.9426013188
 H    3.5450880635    2.5045732768   -2.0279899094
 H    0.4763828315    3.4215214545   -3.2518301024
 H   -0.7265107745    3.2661946304   -1.8574061878