19

 C   -0.0275666265    1.5053964289   -0.0497128907
 C    0.0753776371   -0.0062474788    0.0612085911
 O    0.9570682004   -0.5407616740   -0.9751570773
 C    1.9571263552   -1.2685899637   -0.2324694048
 C    2.9832744100   -1.8898755726   -1.1286917446
 C    1.0994900771   -2.0092358958    0.8426822272
 C    0.7723127419   -0.5533111193    1.3224125710
 C    2.2433335263   -0.2816339218    0.9288211033
 O    3.1877951326    0.2756210430    1.4002172772
 H    0.9451197188    1.9828069365    0.1020717333
 H   -0.3946529203    1.7826850071   -1.0419591937
 H   -0.7274900489    1.8976553130    0.6957566282
 H   -0.9166160302   -0.4590238943   -0.0683920827
 H    3.4738077879   -1.1187774543   -1.7294086246
 H    3.7453608015   -2.4028348577   -0.5358959967
 H    2.5197753713   -2.6112305348   -1.8082789454
 H    0.2617396910   -2.5891837984    0.4495042227
 H    1.6878048960   -2.5863774023    1.5587671609
 H    0.3538837988   -0.3121891405    2.2963379057