18

 C    0.1219805372    1.3964576233   -0.1569309471
 N    0.2727154219   -0.0481885454   -0.0958306116
 C    0.5825622836   -0.6099434403    0.9862231565
 O    0.8252357398    0.0011366062    2.1826987558
 C    0.7882021459   -0.9786027147    3.2133426362
 C   -0.5032685105   -1.7205919595    3.3782082640
 C    0.6454093367   -2.3499532456    2.6141702953
 C    0.6653367876   -2.1321111897    1.1166520370
 O   -0.3878184016   -2.7508811203    0.4164355679
 H    0.9937457759    1.8350375388   -0.6569618300
 H   -0.7527724194    1.6376987037   -0.7687771482
 H    0.0156907517    1.8678504583    0.8266963459
 H    1.4369485650   -0.7230677829    4.0404371185
 H   -0.7284576059   -2.1270496497    4.3576297661
 H   -1.3646796232   -1.3803228840    2.8133119319
 H    1.1606000613   -3.2060114885    3.0296754951
 H    1.6396125191   -2.4647955775    0.7219133507
 H   -0.5639620353   -2.1683038520   -0.3373709438