20

 C    0.1294491244    1.4735110855   -0.1471422289
 C   -0.0074199702   -0.0580697632   -0.1955919137
 C    0.2596735887   -0.5893968615   -1.6075735326
 N    0.9376140946   -0.6833960100    0.7198010161
 C    0.5993495196   -0.8839702851    1.9331489097
 N   -0.5792093276   -0.6218163513    2.5750671464
 N    1.5767825336   -1.5257920702    2.7339864873
 C    1.5734438699   -1.7659884433    4.0737605841
 O    0.6811953312   -1.4927463131    4.8557676177
 H    1.1523745185    1.7654118038   -0.4049526501
 H   -0.5562596703    1.9515015240   -0.8545682592
 H   -0.0849573894    1.8657968071    0.8526896807
 H   -1.0483620776   -0.3215107853    0.0633358416
 H    1.2824988157   -0.3475166069   -1.9138254503
 H    0.1488432632   -1.6770070034   -1.6362338274
 H   -0.4350126626   -0.1504131094   -2.3312509698
 H   -1.1921400226    0.0568246072    2.1598259016
 H   -0.5809913545   -0.7202714893    3.5832103618
 H    2.3953865550   -1.7770579926    2.1988271816
 H    2.5076771104   -2.2604291529    4.3960795236