17

 C   -0.0824681289    1.4622936976   -0.0430052655
 C   -0.0205796207    0.0096079745   -0.0370246678
 C    0.0396353720   -1.1962356339   -0.0317072581
 C    0.1156300673   -2.6045494945   -0.0248765005
 C    1.2118050711   -3.4603556298   -0.0475072669
 C    0.6588373884   -4.7490224021   -0.0280809099
 N   -0.6738071643   -4.7164878942    0.0048669758
 N   -0.9916740386   -3.4124645019    0.0019245998
 C   -2.3790579313   -3.0089808194    0.0875468181
 H    0.8809137702    1.8955691081    0.2471679654
 H   -0.3348640604    1.8496309897   -1.0367007896
 H   -0.8371287899    1.8314605097    0.6603769031
 H    2.2483347767   -3.1691302860   -0.0818780939
 H    1.1690895332   -5.7008144217   -0.0423569684
 H   -2.7377652201   -3.0527248275    1.1212816591
 H   -2.4740828167   -1.9868617837   -0.2806429646
 H   -2.9782673181   -3.6840810949   -0.5248763960