17

 C   -0.0965371540    1.5485667684   -0.0983118552
 C    0.0397177242    0.0489190448   -0.0358356739
 O   -1.1113653247   -0.5753924295   -0.5113550621
 C    1.3791141187   -0.5981028614   -0.2428887145
 C    0.7525669280   -0.6047858780    1.1373932660
 C    1.2006554530   -0.1589276092    2.5218240056
 O    0.5822223774   -1.3762275287    3.0796191549
 C    0.1816625452   -1.7879415089    1.8333270126
 O   -0.4592509551   -2.7514487837    1.5305483547
 H    0.8105844511    2.0453730982    0.2555867743
 H   -0.2798727391    1.8587908869   -1.1315374693
 H   -0.9427703323    1.8806411884    0.5101973954
 H   -1.1401669764   -1.4867969081   -0.1860003906
 H    1.4188568534   -1.5515671497   -0.7606735316
 H    2.2448348540    0.0409417912   -0.3855009910
 H    2.2762528381   -0.1534211971    2.7110843715
 H    0.7239879882    0.7315137762    2.9367161532