21

 C   -0.1048143100    1.5504795699    0.1674395817
 C   -0.0413064275    0.0158461144    0.0531823617
 C    0.7907433204   -0.5455227422    1.2224648131
 C   -1.4640319004   -0.5696562704    0.0951806619
 C    0.6384702303   -0.4235635370   -1.2619818249
 C    0.1605510955    0.1033498651   -2.6317454792
 O    1.4802554208    0.6904092473   -2.8775251596
 C    1.9469838632    0.2724048466   -1.6570629595
 O    3.0212775199    0.4709739991   -1.1849316074
 H    0.8958678075    1.9930016816    0.1503380705
 H   -0.6918041721    2.0011918352   -0.6395111960
 H   -0.5792895029    1.8369772091    1.1113398671
 H    0.3593754718   -0.2388956567    2.1809630684
 H    0.8134085465   -1.6407235831    1.2009582647
 H    1.8223956151   -0.1854232432    1.1775610987
 H   -2.0834666455   -0.1839844986   -0.7222008481
 H   -1.4474690276   -1.6624016809    0.0192527671
 H   -1.9592117925   -0.3081423472    1.0362985556
 H    0.7635884837   -1.5112752522   -1.2589573562
 H   -0.0739647014   -0.6479307107   -3.3881948123
 H   -0.6048996249    0.8809596638   -2.6164297975