17

 C    0.8450634933    1.1573782346   -0.6178827571
 C    0.0751025300    0.0656220116    0.1098756266
 O   -0.5191743013   -0.8823244511   -0.8029895881
 C    0.2514887775   -1.9264092732   -1.1733169323
 C    1.2912227415   -2.1051015822   -2.0536853726
 O    1.9051648448   -1.1538453489   -2.8014574744
 N    1.6767802131   -3.4126276930   -2.1016075757
 C    0.8807409529   -4.0502538957   -1.2644081891
 N    0.0075857704   -3.2006555671   -0.6695121709
 H    1.6772145283    0.7387033121   -1.1879415755
 H    0.1867714102    1.6879691936   -1.3117890844
 H    1.2394509157    1.8793617450    0.1054388742
 H    0.7183596099   -0.4714843508    0.8177928342
 H   -0.7678064289    0.4891747276    0.6654838676
 H    2.5887388834   -1.6134656333   -3.3038736772
 H    0.8961141296   -5.1101399943   -1.0636240815
 H   -0.7299287704   -3.4261705148   -0.0231011139