18

 C   -0.2736892270    1.4891706034    0.1220472530
 N    0.0925383130    0.0934959860   -0.0197154539
 C    0.7365887992   -0.4197085066   -1.2422539141
 C    2.0307058569    0.3228553535   -1.6825834817
 C    2.8146722032   -0.3830601834   -0.5358302497
 C    1.5981232434   -1.3711592892   -0.3525259971
 C    1.0940808207   -0.5288070751    0.8713289203
 C    2.4549045604    0.2107155377    0.8356034014
 O    3.0483805079    0.8988186856    1.6168794019
 H    0.5665206482    2.1968369801    0.0270767279
 H   -1.0205305661    1.7405048945   -0.6387756555
 H   -0.7288093274    1.6429009065    1.1059845532
 H    0.0341030429   -0.7171964293   -2.0250628500
 H    2.3721074941   -0.0422732976   -2.6563532402
 H    2.0229302220    1.4167328673   -1.7022741719
 H    3.8535369128   -0.6643120885   -0.7066865224
 H    1.6431752585   -2.4538256162   -0.3946310113
 H    0.7158042571   -0.8894732886    1.8320086400