18

 C   -0.0809189754    1.5833342379    0.0177993505
 C    0.1008955320    0.0668913241    0.0186356425
 N    0.9241509735   -0.4110180560   -1.0837106565
 C    1.6643312377   -1.5341833496   -0.8130542904
 O    2.2989750405   -2.1828887600   -1.6121027732
 C    1.5151759832   -1.8003139827    0.6898615608
 C    0.8461915540   -0.5305012600    1.2577147455
 C    1.8990408532    0.4199657110    1.7972447448
 O    1.8295536640    0.9723737340    2.8643515484
 H    0.8796847387    2.1059776832    0.0061498949
 H   -0.6502974777    1.9018223591   -0.8612318871
 H   -0.6340198842    1.8991242615    0.9072188334
 H   -0.8970966571   -0.3970722171   -0.0201064361
 H    0.7452684183   -0.1533152475   -2.0425227760
 H    0.8783018903   -2.6810216377    0.8213887011
 H    2.4857820339   -2.0356724012    1.1336471992
 H    0.1426913544   -0.7271691422    2.0686377741
 H    2.7777884408    0.5710411330    1.1288731839