15

 O    0.0103093335   -0.0396266236    0.0039181837
 C    0.0085158403    1.1694176976    0.0098922525
 C   -1.2375818923    2.0892855036    0.0318014592
 C   -0.7411553301    3.5682776817    0.0322690613
 C    0.7555109850    3.4215688165    0.0106266692
 C    1.1395519109    2.0978918558   -0.0012902319
 N    2.4929653490    2.0697670596   -0.0203019213
 N    3.0133223476    3.3092581353   -0.0214695318
 C    1.9641368938    4.1419663609   -0.0026928400
 H   -1.8598153818    1.8556895636   -0.8373808408
 H   -1.8354900298    1.8469452025    0.9155390035
 H   -1.1147521855    4.1196259060   -0.8370600091
 H   -1.0902313708    4.1108306210    0.9171857624
 H    3.1087512045    1.2737236567   -0.0328119131
 H    2.1404922957    5.2072122229    0.0001088962