21

 C   -0.1863481775    1.5750456831   -0.0191452352
 C    0.0009964342    0.0650665149    0.0023160418
 C    1.2338330798   -0.5897251401   -0.6708097561
 C    2.1347470327   -0.1773663636    0.5416463630
 C    3.1079191423   -1.3262366960    0.7720574547
 O    2.2515443842   -2.4588859418    0.5431896577
 C    1.0190449583   -1.8380033172    0.2288824924
 C    0.7588877567   -0.6229680706    1.1740308481
 C    0.3976261908   -0.6637174729    2.6342515763
 H    0.7321538417    2.1185117326    0.2197859158
 H   -0.5209736605    1.9100750700   -1.0072037453
 H   -0.9506935353    1.8819958918    0.7036983828
 H   -0.9471592189   -0.4294649198   -0.2486484905
 H    1.5149409855   -0.5794501363   -1.7249090307
 H    2.5017205437    0.8416415423    0.6539233126
 H    3.9456921420   -1.3374652972    0.0631288802
 H    3.5124348275   -1.3589116952    1.7919081151
 H    0.2497331191   -2.5807245196    0.0177546865
 H    1.1061960223   -1.2826813596    3.1953826092
 H    0.4011772628    0.3384983318    3.0773402718
 H   -0.6014374614   -1.0897375866    2.7796580197