22

 C   -0.0847995397    1.5658439408   -0.0989474046
 C    0.0493730338    0.0546766341    0.0252058339
 C    1.0470563212   -0.6966753158   -0.8977003625
 C    1.3960091328   -1.6333438898    0.2877669084
 C    0.7610876872   -0.5965253941    1.2672081827
 C    1.8159172215    0.2926492444    1.9294224467
 C   -0.1921427506   -1.1689011588    2.3069695056
 O    0.5552336377   -1.9510975310    3.2301612510
 H    0.8849826721    2.0673600890   -0.0205994718
 H   -0.5159312705    1.8337641649   -1.0703092328
 H   -0.7391225339    1.9810484092    0.6761145892
 H   -0.9441392157   -0.4002374094   -0.0785719130
 H    0.6441082056   -1.1534372367   -1.8052019203
 H    1.8910511840   -0.0605608611   -1.1831803673
 H    0.8290646878   -2.5683385382    0.2607213217
 H    2.4496872630   -1.8751960240    0.4459635116
 H    2.5434348795    0.6681625413    1.2030427692
 H    1.3584097756    1.1582793641    2.4221931362
 H    2.3564405202   -0.2790566581    2.6880796796
 H   -0.7192947311   -0.3458035080    2.8199365245
 H   -0.9548892900   -1.7838617362    1.8022578094
 H   -0.0502677203   -2.2993368565    3.8905860626