21

 C    1.1066505593    2.2729501782   -0.7646492253
 C    0.6546633974    0.8180134932   -0.8595346336
 C    1.4536713097   -0.0134197520   -1.8487345638
 O    2.2691415883    0.4944901375   -2.5933768223
 C    1.1942877086   -1.5168003299   -1.8469746117
 C    1.6405444531   -2.2002796244   -3.1259380623
 O    3.0070682621   -2.0738746482   -3.3876400778
 C    1.0417799840   -3.5123373235   -3.5228972231
 C    0.6960274675   -2.2578386907   -4.3052346798
 H    2.1440382831    2.3388339481   -0.4259667387
 H    1.0519302414    2.7607083834   -1.7406443522
 H    0.4786568434    2.8271349146   -0.0619041394
 H    0.6944659093    0.3156531748    0.1166351716
 H   -0.3995367001    0.7509128817   -1.1659493801
 H    1.7521828360   -1.9318139827   -0.9938800996
 H    0.1349536039   -1.7059651670   -1.6403874029
 H    3.1680463723   -1.1190735106   -3.4298839576
 H    1.7163928753   -4.2207996472   -3.9895283870
 H    0.2813722515   -3.9561406379   -2.8889120064
 H   -0.3037638642   -1.8466954597   -4.2074696980
 H    1.1425224483   -2.1453397680   -5.2860904601