19

 C   -0.0677633545    1.5732269350    0.0366912451
 C   -0.0022667515    0.0385018831   -0.0205682480
 C    0.6806531725   -0.4495234130   -1.2794927688
 C    1.8119135007   -1.1518034421   -1.2350721661
 C    2.4154158390   -1.4758985192    0.1119862772
 C    1.6499714179   -2.6214176386    0.8020187702
 O    0.4912613531   -1.9505640655    1.2993407010
 C    0.7391587102   -0.5476713530    1.1974384187
 O    2.1326274047   -0.4095063650    1.0299814644
 H    0.9403150386    1.9947135758    0.0909608624
 H   -0.5580483801    1.9787545212   -0.8537586752
 H   -0.6309127860    1.9117015808    0.9129915252
 H   -1.0240411160   -0.3625503518    0.0082311584
 H    0.2223850500   -0.1850542772   -2.2294627036
 H    2.3002689864   -1.5225964670   -2.1308203752
 H    3.4964067608   -1.6190662189    0.0784585717
 H    1.3434762325   -3.4178288552    0.1181040741
 H    2.2318258855   -3.0485638895    1.6294104392
 H    0.4519910960   -0.0586124397    2.1341112694