14

 C    0.1131577178    1.4862668473   -0.0048697659
 C   -0.0539897792    0.0142063380   -0.0323924170
 C   -1.0995686952   -0.8602624805    0.0562873423
 C   -2.5124793249   -0.5254530435    0.2241261433
 O   -3.4147379807   -1.3255715066    0.3000767044
 N   -0.6205810738   -2.1759423333   -0.0381509095
 C    0.6468789937   -2.0154437299   -0.1739837330
 O    1.6017185803   -2.9267093947   -0.3087469660
 O    1.0894930143   -0.7371474838   -0.1830676365
 H    0.7638406082    1.7927578904    0.8216616835
 H    0.5683323752    1.8478468555   -0.9336235101
 H   -0.8538577659    1.9762089697    0.1182823206
 H   -2.7080328540    0.5689791970    0.2796070676
 H    1.1690511142   -3.7906527955   -0.2872460538