15

 O    0.4477156623    1.3487774688    0.2412024148
 C    0.1538050329    0.0135784442    0.0278413325
 C   -1.2763100698   -0.5638609319    0.0660112961
 C   -2.1178491262   -0.2702189455   -1.1195425312
 C   -2.0907140699    0.9751025830   -1.9475582955
 O   -1.2656046092    1.8588280500   -1.8857612970
 N   -1.0446889139   -1.3268225227   -1.2322192333
 C    0.2256993310   -0.6166150051   -1.3758284280
 N    0.9821177225   -0.6619169162   -2.3731883378
 H   -0.0336304756    1.8434628683   -0.4422459969
 H    0.7740012025   -0.5717745377    0.7168545726
 H   -1.7180037775   -1.0652841148    0.9205825540
 H   -3.0947175131   -0.7483367680   -1.1251862452
 H   -2.9242392964    1.0470440619   -2.6739841734
 H    1.8170198605   -0.0940527844   -2.2109056717