11

 C    0.0615195710    1.4887348724    0.0614162178
 C   -0.0670011247    0.0120213615   -0.0022006590
 C   -1.0723550209   -0.8556339208   -0.2755561587
 N   -0.6041670808   -2.1630540696   -0.1844937057
 C    0.6387965307   -2.0243802495    0.1336928547
 O    1.0503800958   -0.7406585501    0.2652447437
 H    0.8041778215    1.8588557866   -0.6540040940
 H   -0.8996213375    1.9515950441   -0.1731079385
 H    0.3690432318    1.8230390701    1.0584275472
 H   -2.0971453052   -0.6367967175   -0.5308070155
 H    1.3789740683   -2.7900083273    0.3052806780