23

 C   -0.1831381112    1.5486646608   -0.2608280296
 C   -0.0637018070    0.0689360122    0.0615718374
 O   -1.3288080828   -0.5369796734   -0.1183435680
 C   -1.3449382534   -1.9238721035    0.1805466612
 C   -2.7860666547   -2.3614386439    0.1193369270
 O   -3.5960558437   -1.6288297767    0.9992741855
 C   -3.3971138440   -2.8046799787   -1.1926036068
 C   -3.1938212568   -3.7925429805   -0.0562323027
 C   -2.2175306101   -4.9436679413   -0.1635743805
 H    0.7832216957    2.0454292632   -0.1334001208
 H   -0.5139914818    1.6914848454   -1.2933862655
 H   -0.9091812095    2.0290723927    0.4015078675
 H    0.6809324985   -0.4110917403   -0.5953054215
 H    0.2819210873   -0.0766091077    1.0987709199
 H   -0.7182088031   -2.4804154525   -0.5317327204
 H   -0.9429118600   -2.0927354553    1.1933010224
 H   -3.3972010332   -0.7011237051    0.8190440102
 H   -4.4065742603   -2.4705912906   -1.4022873229
 H   -2.7495229872   -2.8860105913   -2.0605196604
 H   -4.1007720620   -4.0250561219    0.4959171499
 H   -1.3364013803   -4.6805894954   -0.7564762055
 H   -1.8708705393   -5.2714540218    0.8228865641
 H   -2.6905130812   -5.8031149144   -0.6512283605