13

 C   -0.2533142946    1.2134747070    0.1157834484
 O    0.5103751942    0.0542204424   -0.1454864689
 C    0.9522174589   -0.5747157439    1.0149177352
 C    0.0327418325   -1.5344601753    1.7288946691
 C    1.2111817604   -2.0413708562    0.9178378943
 H    0.3304731178    1.9693252771    0.6635427447
 H   -0.5495380807    1.6293680624   -0.8502224175
 H   -1.1550223997    0.9838715743    0.7019035170
 H    1.6244219374    0.0316146112    1.6249837713
 H    0.0743375034   -1.5962027746    2.8108395146
 H   -0.9530954585   -1.6765787164    1.3002594762
 H    0.9888364237   -2.5054754174   -0.0361017245
 H    2.0694324452   -2.4521709307    1.4372243001