18

 N   -0.2693774622   -1.1125321705    0.4329030739
 C   -0.1425817801    0.0157501268    0.2082102902
 C    0.0236611399    1.4138566708   -0.0731302939
 C    0.5981139480    2.3297481800    1.0002030191
 C    1.4219664217    2.0052768463   -0.2095523273
 C    2.6573609864    1.1331185766   -0.1103283168
 C    3.8798141427    1.9490088764    0.2410300338
 C    5.1940728282    1.6855426322   -0.3548926309
 O    4.3963991709    2.7852244265   -0.7994947271
 H   -0.7478243737    1.8271164873   -0.7136304738
 H    0.1534986742    3.3136115112    1.0930450964
 H    0.8685263948    1.8632565734    1.9411048855
 H    1.4966602237    2.7866629121   -0.9598571046
 H    2.5091378994    0.3520066893    0.6446701865
 H    2.8287236591    0.6268544571   -1.0669118065
 H    3.8530567540    2.4336862037    1.2187864397
 H    6.0998135255    1.9530325821    0.1871214132
 H    5.3039908173    0.8697562186   -1.0683158273