21

 C   -0.2450601825    1.5611124312    0.0976484584
 C    0.2574162613    0.1259244451   -0.0906287750
 C    0.8394637753   -0.4883302917    1.1846469470
 C    2.0907669810    0.2135178878    1.6875330170
 O   -0.1748312465   -0.5481652936    2.2331282708
 C   -0.3018860527   -1.9727567364    2.1181330386
 C    0.9275887890   -2.0608242045    1.1784075412
 C    0.8064678820   -2.7962112802   -0.0608751008
 C    0.6990173303   -3.4163147903   -1.0859986225
 H    0.5715624037    2.2636351105    0.2898654705
 H   -0.7681595026    1.9047449388   -0.7995369371
 H   -0.9417595352    1.6106658156    0.9392629384
 H   -0.5706937620   -0.5060380576   -0.4285950500
 H    1.0162470251    0.0807999214   -0.8813820483
 H    1.8838096406    1.2622576237    1.9176278655
 H    2.4567908959   -0.2635560778    2.6008659172
 H    2.8823731981    0.1767454371    0.9312407752
 H   -0.2065406252   -2.4784297715    3.0849499175
 H   -1.2436150479   -2.2728188245    1.6427352240
 H    1.8184249388   -2.3916408846    1.7202724370
 H    0.6064750433   -3.9631633686   -1.9915591947