18

 C   -0.1709542750    1.6370147047   -0.2833419836
 C   -0.0242043693    0.1283333353   -0.0467253705
 C   -1.3895287752   -0.5575802703    0.0485092556
 O   -2.0898090234    0.0114753633    1.1408190406
 C    0.8147088109   -0.5473846362   -1.1378791469
 C    2.2895879030   -0.2233503773   -1.0788764481
 O    2.8421130380    0.4101689908   -0.2165083228
 C    3.0797370766   -0.7833738450   -2.2026261212
 N    3.6824071236   -1.2256619476   -3.0848153540
 H    0.8001846831    2.1364482996   -0.2597897202
 H   -0.6377811166    1.8352077946   -1.2563656185
 H   -0.8060465482    2.0743662442    0.4890252083
 H    0.4821244479   -0.0246373799    0.9135259095
 H   -1.9406011013   -0.4178708543   -0.8972017768
 H   -1.2499636699   -1.6422853937    0.1893651100
 H   -2.9783130389   -0.3550958926    1.1578761994
 H    0.7428168818   -1.6447483945   -1.0814154190
 H    0.4552044131   -0.2928783210   -2.1451727817