20

 C   -0.1407298089    1.5442459362   -0.1315387305
 C    0.0100967268    0.0368460505    0.0203923236
 C    1.1635429949   -0.6127168037   -0.7810148071
 O    1.5455935891   -0.5752960891   -1.9193644813
 N    1.6499068743   -1.2433851873    0.3470065161
 C    0.7090625690   -0.5794649924    1.2888143805
 C    1.3882937071    0.3859031782    2.2549300759
 C   -0.1459327920   -1.6099343354    2.0337693172
 O    0.6305809859   -2.4409513490    2.8815540956
 H    0.7992517601    2.0729660390    0.0470960140
 H   -0.4590338967    1.7763481934   -1.1520277203
 H   -0.8931626152    1.9416242223    0.5568117986
 H   -0.9448607626   -0.4578003018   -0.1881746321
 H    2.5903552849   -1.5774053147    0.5120222317
 H    2.0954708494    1.0412937036    1.7406701308
 H    0.6475807591    1.0098581866    2.7653524869
 H    1.9276030244   -0.1814252278    3.0188778210
 H   -0.8661356865   -1.0977303175    2.6815321019
 H   -0.7114120690   -2.2075976263    1.3042737882
 H    1.1431152360   -3.0239296749    2.3112836894