19

 C   -0.0712105333    1.5783682503   -0.0361175729
 C    0.0462444596    0.0506856781   -0.0172386813
 N    0.7165087877   -0.4907926533   -1.1870326193
 C    0.0811467327   -0.8183157428   -2.3640573666
 C    1.0296447295   -1.2135855902   -3.2749130806
 C    2.2916981834   -1.1180244444   -2.6278508575
 C    2.0781987895   -0.6677450222   -1.3423971705
 C    3.0588790834   -0.4086674479   -0.2451487219
 H    0.9159729143    2.0483157739   -0.0629281559
 H   -0.6277503002    1.9115814609   -0.9168198871
 H   -0.5952701845    1.9309384440    0.8580830536
 H    0.5878241789   -0.2761067934    0.8755363212
 H   -0.9494184871   -0.4014587243    0.0349185048
 H   -0.9924889792   -0.7439534907   -2.4414148519
 H    0.8392419194   -1.5448951463   -4.2841577703
 H    3.2564697336   -1.3626827215   -3.0469432021
 H    3.0628537083    0.6370358392    0.0879627426
 H    2.8734892411   -1.0289569444    0.6413463618
 H    4.0654149229   -0.6417084750   -0.6002201960