15

 C    0.4330846881    1.3769114492    0.0214281101
 C    0.3062922613   -0.1243375326    0.0644912186
 O    0.1940178012   -0.7778416640    1.0722517354
 C    0.3246406039   -0.8298507343   -1.3147209249
 O    0.4118404163   -0.1831515780   -2.3380286880
 C    0.2297405247   -2.2654677428   -1.2817783026
 C    0.1621678712   -3.4718246389   -1.2737264575
 C    0.0457619568   -4.9268773871   -1.3017226538
 O    0.3007589570   -5.5017922037   -2.5691310910
 H    1.3707173709    1.6594391323   -0.4680832090
 H   -0.3687364374    1.8045649048   -0.5885537905
 H    0.3976660634    1.7761141082    1.0350786511
 H    0.7784799138   -5.3641368720   -0.6140593318
 H   -0.9492822062   -5.2009123742   -0.9140147001
 H   -0.2762253052   -5.0748540266   -3.2114142160