20

 C   -0.2721859174    1.6400368619   -0.1390760697
 C   -0.0556930178    0.1498675067   -0.0438225881
 C    0.6452617569   -0.8151908826   -1.0317499770
 N    0.2018180238   -1.7818312267    0.0885129808
 C    0.7150255526   -0.6661492914    1.0202883380
 C   -1.1319475009   -1.0032345704    0.0808647931
 C   -2.0201755364   -1.1269992560    1.3230643120
 C   -2.0344811783   -1.2530807983   -1.1132181727
 O   -1.9007227070   -2.1056823728   -1.9518683523
 H    0.6873943393    2.1675249061   -0.1709433953
 H   -0.8291150472    1.9056192554   -1.0439428442
 H   -0.8309385402    2.0155390282    0.7251749706
 H    0.1955454263   -1.0194289735   -2.0010157519
 H    1.7322700044   -0.7359831180   -1.1098010954
 H    1.8048405367   -0.5813092804    1.0114639273
 H    0.3462945258   -0.7178229116    2.0440757481
 H   -1.6269229857   -0.6077460343    2.1975902338
 H   -3.0147339611   -0.7137924704    1.1243527515
 H   -2.1447202495   -2.1844873279    1.5780310485
 H   -2.9091240644   -0.5584220242   -1.1406399969