19

 C   -0.2613231321    1.3897876797   -0.2384447496
 O   -0.3254290975   -0.0161128791   -0.2955059993
 C    0.8744505136   -0.5809648866   -0.7914695085
 C    0.7748357328   -2.0313281398   -0.8388030881
 C    0.7261315577   -3.2341656444   -0.8975397243
 C    0.6468295376   -4.6705855210   -0.9073841685
 O    1.1545943025   -5.3171667909    0.2319221720
 C   -0.5181826150   -5.3369098009   -1.6253664162
 C    0.8763891663   -5.4308408886   -2.1886293405
 H    0.5450983129    1.7374162748    0.4272817178
 H   -0.0977203885    1.8340257631   -1.2335714142
 H   -1.2185581294    1.7415447099    0.1524831727
 H    1.0925834066   -0.1902440344   -1.8012905046
 H    1.7276212534   -0.2880427005   -0.1542423406
 H    0.6516766416   -5.0011395098    0.9912353627
 H   -0.9210315396   -6.2180189490   -1.1390310099
 H   -1.2418860695   -4.7026624979   -2.1232839726
 H    1.1207278064   -4.8629989672   -3.0777996127
 H    1.4020229602   -6.3718908475   -2.0757526755