19

 C   -0.0616059866    1.7704423295    0.8012998504
 C    0.0846596113    0.2691138583    0.6646678499
 C    1.2074963978   -0.5181397548   -0.0095461804
 N    2.5616379501   -0.0241248042    0.2020793570
 C    3.0669431500    1.1394556999   -0.4990205970
 C    2.3785567338   -0.0162553700    1.6750900316
 C    0.9789242602   -0.6253641820    1.4864510611
 O    0.5286086620   -1.7243674559    2.1963603839
 H   -0.3460402366    2.2309552608   -0.1509630140
 H   -0.8418290432    2.0155050745    1.5316981731
 H    0.8593292998    2.2507161702    1.1381603864
 H   -0.8592100138   -0.2437917544    0.4758678208
 H    0.9996720855   -1.2295837878   -0.8029018500
 H    2.5183924791    2.0774892207   -0.3126330466
 H    4.1145768826    1.3016941952   -0.2219455871
 H    3.0382009529    0.9446740858   -1.5764130401
 H    3.0727274337   -0.6950224749    2.1827456471
 H    2.4250625253    0.9704940635    2.1565538461
 H   -0.0398270236   -1.4119051743    2.9082711679