18

 C   -0.0729424726    1.4837692006    0.0457942451
 C   -0.0223607694   -0.0063608099   -0.0111811277
 C   -0.0413969703   -0.8127714520   -1.0909097545
 C    0.0398263009   -2.2391759770   -0.6149882144
 N    1.4045329558   -2.4778398662   -0.0380830603
 C    1.4792738538   -1.5934347622    1.1701424647
 C    0.0913928057   -0.8897935766    1.2185362605
 C   -0.7792706993   -2.0648448877    0.6842544315
 O   -1.7221540762   -2.6342386013    1.1459684724
 H    0.8354014685    1.8962857023    0.5026064063
 H   -0.1783449855    1.9165803046   -0.9528866352
 H   -0.9150913491    1.8262045630    0.6597866098
 H   -0.0956652271   -0.5059458443   -2.1276953660
 H   -0.2538429348   -3.0268837773   -1.3050762937
 H    1.4521801534   -3.4482401983    0.2604946616
 H    1.6526689472   -2.1765488527    2.0809712649
 H    2.2960588487   -0.8720100234    1.0647860960
 H   -0.1886796297   -0.4557522016    2.1764378589