17

 C    0.0270493805    1.4535818060    0.0659050408
 C    1.3348374725    0.6950871441   -0.0135336089
 O    1.6741300464    0.1160390490    1.2486954996
 C    0.4582285573   -0.7142608735    1.2182303324
 C    0.7752447060   -2.1501787279    0.9606534458
 C    0.5040563402   -2.7008865326   -0.2218408690
 C   -0.1424404358   -1.9721778964   -1.3669400597
 O   -0.7031329415   -0.7038057636   -1.0338908591
 C    0.0040817199   -0.0349107260   -0.0654865986
 H   -0.2733331350    1.9494353018    0.9858124157
 H   -0.2356323795    1.9711427888   -0.8524746780
 H    2.1299358699    0.8910736644   -0.7222231213
 H   -0.1385478085   -0.5602566271    2.1252173678
 H    1.2583624798   -2.7166581742    1.7511788182
 H    0.7684004956   -3.7357420727   -0.4270492491
 H    0.5971801979   -1.8477173523   -2.1764398361
 H   -0.9676125557   -2.5638217177   -1.7796210804