16

 N    0.1353224685    1.0161885300   -0.6062170862
 C    0.1492354925   -0.0855000123    0.2123957917
 O    1.0063311371   -0.2824316345    1.0464179036
 C   -1.1005975941   -0.9441826976    0.1287337753
 C   -1.7791330198   -1.5329290572   -1.0857635468
 C   -0.7610672431   -2.0943218506   -2.1293353356
 O    0.5706734831   -1.8177054651   -1.6764586057
 C   -0.1319184742   -2.9359088031   -1.1182993597
 C   -1.1233440097   -2.4316478167   -0.0254108060
 H    1.0012200036    1.5314764409   -0.6578410459
 H   -0.4152983917    0.9832714066   -1.4484571644
 H   -1.8321847857   -0.6126299869    0.8645223922
 H   -2.8337741310   -1.4068093829   -1.2931770773
 H   -0.9178967999   -2.2262148479   -3.1928295101
 H    0.3447661303   -3.9062216328   -1.1721998713
 H   -1.6088837959   -3.0911026598    0.6810289663