18

 C    0.0569778401    1.5835855003   -0.0873911523
 N   -0.0179427942    0.1234249960   -0.0467436577
 C   -1.1196360738   -0.4428416846    0.7910237813
 C   -0.3263125410   -1.7537399945    1.0589289442
 C   -0.5719872709   -1.7011245707    2.5765352939
 C   -0.4216762240   -0.2168601341    2.1891067188
 C    0.6773281146   -0.5330507134    1.1032613349
 C    2.1539281275   -0.6309319333    1.2526357965
 O    2.7124671008   -0.8408431613    2.3019647096
 H    1.0292938286    1.8870426912   -0.4882292994
 H   -0.7130677652    1.9583807577   -0.7693047110
 H   -0.0814745119    2.0744258348    0.8898946298
 H   -2.1755807581   -0.3351364919    0.5371441488
 H   -0.2385952711   -2.5981505275    0.3761257229
 H   -1.5624330099   -2.0186990509    2.9151020949
 H    0.2107437184   -2.1156463507    3.2142710091
 H   -0.4662488173    0.6583921296    2.8354724401
 H    2.7183429773   -0.5204636966    0.2991044057