17

 N    0.0520017586    1.3092476342   -0.0299644099
 C    0.0862718982   -0.0425537337   -0.1284928783
 O    1.1234176024   -0.6727440489   -0.2367909956
 C   -1.2817895439   -0.7446900423   -0.0618003389
 C   -2.1875539307   -0.3651994711   -1.2510206371
 O   -1.5628765236   -0.6110247459   -2.4922397279
 N   -1.0116002747   -2.1706149569   -0.0568661593
 C   -1.8951031384   -3.0655802101    0.4588393808
 O   -3.0289834033   -2.7978017813    0.8015276474
 H    0.9135123337    1.8136431640   -0.1626512994
 H   -0.8102133945    1.8250264361   -0.0429928438
 H   -1.7984334395   -0.4646784676    0.8659870274
 H   -3.1311862120   -0.9145612734   -1.1389689694
 H   -2.4208713032    0.7048762556   -1.2277787936
 H   -1.3451720759   -1.5499762528   -2.5159299755
 H   -0.0282126186   -2.4026205720   -0.1426973861
 H   -1.4691637045   -4.0860138038    0.5171002790