20

 C   -0.0380248297    1.5705729405    0.0934315016
 C    0.0068313388    0.0414928284    0.2105028824
 C   -1.3734233731   -0.5935125263    0.0635610362
 C   -2.0312307321   -0.6989817265   -1.3731204821
 C   -1.1527374571   -1.9797821811   -1.5788946797
 C   -1.4849638371   -2.1654231672   -0.0587361289
 C   -3.0103515159   -2.3107309043   -0.1356251653
 C   -3.3674854297   -1.3512508079   -0.9957330221
 H    0.9541371008    2.0093457655    0.2378243635
 H   -0.4001382417    1.8829203419   -0.8917037103
 H   -0.7077796005    2.0048731901    0.8438349413
 H    0.7142059805   -0.3583166820   -0.5236602287
 H    0.4063579717   -0.2333195681    1.1961882257
 H   -2.0451342904   -0.1664573585    0.8163873588
 H   -2.0347097465    0.1299122835   -2.0810989173
 H   -1.5362142642   -2.7375353395   -2.2657144004
 H   -0.0998772697   -1.7752192746   -1.7878978744
 H   -0.9231426494   -2.8408822321    0.5871668741
 H   -3.6157354204   -3.0253135759    0.4035107394
 H   -4.3458073542   -1.0642629759   -1.3540185438