14

 N   -0.0859634181   -1.1511246295   -0.0937532861
 C   -0.0102482652    0.0000754517   -0.0427034965
 C    0.0290217283    1.4687521809    0.0433986672
 C   -0.7374003299    1.9625407578    1.2865566545
 C   -0.4724074895    3.4538869173    1.4367055561
 O    0.9372246654    3.7305515610    1.4752571511
 C    1.7201697107    2.9382497766    0.7147641564
 N    1.4211052618    1.9220243605    0.0200054531
 H   -0.4687203765    1.8460601579   -0.8612019395
 H   -1.8101008436    1.7722965641    1.1936553750
 H   -0.3767968622    1.4282242447    2.1707644483
 H   -0.9087861656    4.0168999554    0.6020993752
 H   -0.8797024429    3.8491766888    2.3691688449
 H    2.7503840274    3.2860214329    0.7545871204