16

 C   -0.5802729475    1.3149325190   -0.5774950555
 O   -0.6511011059   -0.0938608523   -0.6305708182
 C   -0.6573693374   -0.6896272250    0.6495512600
 C   -0.8115080484   -2.1609894257    0.4669141736
 N   -0.2381236029   -3.0692979984    1.1940208160
 N   -0.7296305161   -4.2544332581    0.6926897627
 C   -1.5902866193   -4.1053133151   -0.3775172111
 O   -2.1515417612   -4.9417262476   -1.0488970840
 N   -1.6441917170   -2.7079971545   -0.4762379746
 H   -0.5943719954    1.6778568026   -1.6071878668
 H   -1.4356683167    1.7439753001   -0.0331716534
 H    0.3457768767    1.6551985108   -0.0907641520
 H    0.2703060077   -0.4961758333    1.2067753581
 H   -1.4946638621   -0.2901526136    1.2488864068
 H   -0.4063861733   -5.1311732199    1.0611656639
 H   -2.1046881313   -2.2089302290   -1.2175462654