17

 O    0.0901503139    1.3802575634    0.0039275612
 C    0.0311143553   -0.0206770265    0.1522322835
 C   -1.4021234035   -0.5312552219   -0.0271770813
 O   -1.9263779448    0.0038292607   -1.2532444023
 C   -1.5033842190   -2.0338127496    0.0413801409
 C   -1.7753670229   -2.7164804579    1.3615079568
 C   -2.8364920996   -2.6909224349    0.2928790645
 H   -0.5005508829    1.5773990355   -0.7355417179
 H    0.6853600281   -0.5332878947   -0.5782299862
 H    0.4019460786   -0.2691026244    1.1524868797
 H   -2.0301783277   -0.0822190265    0.7517205356
 H   -1.5680980220   -0.5217031816   -1.9778804036
 H   -0.8261488666   -2.5565817567   -0.6327062563
 H   -1.2677370207   -3.6519617711    1.5670614614
 H   -1.9180421387   -2.0881261758    2.2345000177
 H   -3.6924046693   -2.0408282618    0.4386195365
 H   -3.0615107682   -3.6124438063   -0.2321065100