18

 C    0.7485905144    1.2082736099    0.1991690587
 C   -0.2535076768    0.0998638082   -0.0482014114
 O   -1.1527285700   -0.1604690003    0.7262214210
 C   -0.1216245343   -0.6953257477   -1.2965243731
 C    1.1643013992   -1.0561230206   -1.9546392510
 N    0.3060458976   -0.1096075426   -2.6575271879
 C   -0.7745530703   -0.9527289372   -3.2943583459
 C   -1.2739251217   -1.4763603116   -1.9301911802
 O   -1.2776708810   -2.8786351694   -1.8171236645
 H    1.6997940806    0.7805138962    0.5374512580
 H    0.9462047291    1.7643142548   -0.7218223927
 H    0.3699732731    1.8708863333    0.9782976271
 H    2.0713288641   -0.6089405888   -1.5613251334
 H    1.2719255109   -2.0705807772   -2.3324144067
 H   -1.4867069635   -0.3195576216   -3.8244565616
 H   -0.3832341727   -1.7204271061   -3.9676215399
 H   -2.2375883381   -1.0447794045   -1.6399884494
 H   -1.5891523306   -3.1017683149   -0.9329991970