16

 C    0.1128087570    1.4146567653   -0.3455351182
 C    1.4127858757    2.0331960360    0.2702765052
 C    2.1653586768    0.8061376541    0.6927309753
 C    3.3890256263    0.3398141594    1.1123916354
 N    3.2111492184   -0.9951464435    1.3384171708
 N    1.9513395138   -1.4312942838    1.0915549727
 C    1.3298771624   -0.3274952361    0.7033647449
 C   -0.0751930617    0.0018717620    0.2923192423
 H   -0.7599720471    2.0573843431   -0.2050592585
 H    0.2578723725    1.2975906335   -1.4243205882
 H    1.9410856930    2.6639831474   -0.4514185895
 H    1.1732967539    2.6719789290    1.1306672929
 H    4.3487345599    0.8079646646    1.2658585772
 H    3.9058529173   -1.6626137585    1.6267633958
 H   -0.7391912040    0.0443195466    1.1651928727
 H   -0.5131191541   -0.7160367091   -0.4067088905