21

 C   -0.1944473418    1.5251789872   -0.0190915345
 C    0.0063939755    0.0195562266   -0.0027241056
 O    0.8362662694   -0.3947220354   -1.1190619230
 C    1.9180840783   -1.1487381081   -0.5563616032
 C    2.8193625364   -0.1646487266    0.1965992837
 O    2.0100558565    0.1962779421    1.3338033476
 C    0.7784207524   -0.5499622532    1.2149253561
 C    0.0603404259   -0.5420705104    2.5431332543
 C    1.2610865364   -1.8851741399    0.6170278180
 H    0.7430872915    2.0415710563    0.1981844129
 H   -0.5568940715    1.8414445815   -1.0009492472
 H   -0.9377038537    1.8223592472    0.7285088718
 H   -0.9680005329   -0.4844727678   -0.0933404530
 H    2.3963828347   -1.7301435574   -1.3442867761
 H    3.7621346097   -0.6128762337    0.5379466252
 H    3.0372916367    0.7199308144   -0.4110157105
 H   -0.1755084834    0.4810091600    2.8503242233
 H   -0.8741697845   -1.1075004826    2.4792881975
 H    0.6886509989   -0.9905399836    3.3173921514
 H    0.4550804152   -2.5502065734    0.3011847660
 H    1.9594475403   -2.4099207732    1.2726077053