19

 C    0.0060566388    1.6506240460    0.0679141260
 C    1.5077037053    1.3116909698    0.0177606983
 C    1.1763500515    0.0981349272    0.9529758831
 C   -0.0838036462    0.0789319424    0.0362766753
 C   -1.3840989555   -0.6431281891   -0.1049745535
 C   -1.6584101224   -0.7866985754   -1.4101753152
 C   -0.5497837683   -0.2467934475   -2.3147935547
 C    0.6074921095   -0.2202305824   -1.3029075190
 O    1.6561742382    0.7578174399   -1.3113559704
 H   -0.3267802493    2.0603629639    1.0235371756
 H   -0.4054068935    2.2180205814   -0.7687390960
 H    2.3083984190    2.0224282996    0.2152307643
 H    1.8425756759   -0.7678145112    0.9251009980
 H    0.9895900404    0.4149023473    1.9807706960
 H   -2.0428091838   -0.9181433765    0.7100093726
 H   -2.5792233500   -1.2008138544   -1.8074377624
 H   -0.3574501682   -0.8789477897   -3.1866436458
 H   -0.7980693317    0.7552742503   -2.6878686317
 H    1.0569316202   -1.2226054816   -1.2816849602