21

 C   -1.0275670392    1.4726370576    0.2071192987
 C   -0.3958327155    0.1340315714   -0.1676682169
 N    0.7178121733   -0.1585365163    0.7366471707
 C    0.4009608081   -0.9401140865    1.9292589968
 C    1.2410717924   -1.5319490711    0.8529176074
 C    0.7726367458   -2.6844730801   -0.0073080635
 C    1.3898316720   -2.7803335150   -1.4088746301
 N    2.1293953577   -1.7064358691   -1.8129292749
 O    1.2209509541   -3.7587695641   -2.1087439949
 H   -0.2808286293    2.2709592963    0.1797890303
 H   -1.8364393460    1.7244145756   -0.4853996997
 H   -1.4456356025    1.4369569719    1.2183795801
 H   -1.1708633509   -0.6495981923   -0.1598343592
 H   -0.0017709304    0.1787993117   -1.1895865513
 H    0.8472542204   -0.6079970114    2.8628616377
 H   -0.6172892968   -1.3179203649    2.0231063764
 H    2.3168718644   -1.5399997242    1.0297944381
 H    1.0045048244   -3.6328882371    0.4890250391
 H   -0.3131922862   -2.6795395446   -0.1403294211
 H    2.2391341225   -0.8782871475   -1.2537785822
 H    2.5273938116   -1.7314613400   -2.7373006914