18

 C   -0.0383053943    1.3423090181    0.0585002915
 O   -0.0037065358   -0.0676983173    0.0125670389
 C    0.6175700795   -0.5983322777   -1.0770263849
 C    1.2180845304    0.0366828917   -2.1441585357
 N    1.6957476713   -0.9586217758   -2.9735369795
 C    1.4059436496   -2.1885322161   -2.4490301973
 C    0.7328941776   -2.0061485832   -1.2635638692
 C    0.2176674531   -3.0633878765   -0.3419690720
 O    0.5419997448   -4.3356276137   -0.8875643238
 H    0.9758303833    1.7663613809    0.0749756413
 H   -0.5774046560    1.7569289308   -0.8052345204
 H   -0.5602343348    1.6189505744    0.9765041754
 H    1.3458766649    1.0780108757   -2.3819487189
 H    2.1836467332   -0.7990730126   -3.8355900792
 H    1.6921804128   -3.1012866819   -2.9426731197
 H    0.6598688078   -2.9371356379    0.6606292285
 H   -0.8723477032   -2.9530039166   -0.2138633917
 H    0.2043148457   -5.0072848124   -0.2890198533