20

 C   -0.3320523732   -1.6161073981   -0.5047824682
 N   -0.5142138250   -0.7112866032    0.6307774203
 C    0.6377400154   -0.6552316224    1.5120503441
 C    1.6798073517    0.4056850120    1.0591480780
 C    3.0846758768    0.2687872358    1.5884115423
 O    1.3278509620    1.2928061187    0.3153197283
 C    0.2644693152   -0.3416074242    2.9860767328
 C   -1.1241176150    0.1910015223    3.2472169657
 O    1.0786002063   -0.5099847891    3.8651712797
 H   -0.2476067726   -2.6467339383   -0.1435089577
 H   -1.2138951884   -1.5622167040   -1.1490901783
 H    0.5546578153   -1.3964584651   -1.1221011568
 H   -0.6491693052    0.2294152526    0.2658826984
 H    1.1349092986   -1.6308443119    1.5478583315
 H    3.5630246135   -0.5895545864    1.1002099514
 H    3.6607979705    1.1699774801    1.3740496419
 H    3.0639262405    0.0524741218    2.6599593179
 H   -1.8725118254   -0.5044126866    2.8600558767
 H   -1.2525448716    0.3586062495    4.3168377834
 H   -1.2696827693    1.1315094065    2.7023999588