17

 C    0.0726333508    1.4381607771    0.0711644866
 N   -0.0496363647    0.0030495614   -0.0537722128
 C   -1.2368560474   -0.6659427883   -0.0038850133
 C   -2.4993899804   -0.0372620008   -0.0819070614
 N   -3.6049396259   -0.7511550520   -0.0652541171
 C   -3.4564828582   -2.0866459592    0.0328908967
 C   -4.6947635946   -2.9346588517    0.0447583305
 N   -2.2805484275   -2.7103139385    0.1274188217
 N   -1.1632199177   -1.9997338580    0.1135669043
 H    1.1306561280    1.7029530731    0.0353850416
 H   -0.4243400415    1.9527051821   -0.7596853318
 H   -0.3463379984    1.8243873088    1.0118788210
 H    0.7521015823   -0.5722789143    0.1531275369
 H   -2.5975084944    1.0431035413   -0.1547241790
 H   -5.2660677910   -2.7941402271   -0.8786924849
 H   -4.4250981765   -3.9865428711    0.1443248896
 H   -5.3499910428   -2.6480035629    0.8736072113