21

 C   -0.1046105697    1.2533440085   -0.0158375663
 O    0.2666064367   -0.1035204912   -0.1070931533
 C    0.7799298266   -0.6440149805    1.0971456616
 C   -0.2763132900   -1.0417662300    2.1754976116
 C   -0.0101585821   -2.5634250380    2.2085012606
 C    0.0583639378   -2.9105006619    0.6964431417
 C    1.3529057297   -2.0352581038    0.7823686498
 O    2.3751219993   -2.0766258734   -0.1558858838
 C    1.5487165109   -2.6233957687    2.1994753603
 H    0.7442843096    1.8859197067    0.2869162507
 H   -0.4442099461    1.5663714634   -1.0062311086
 H   -0.9224983930    1.4089836369    0.7028519013
 H    1.5578132898    0.0269799460    1.4917998582
 H   -0.1027414898   -0.5578012619    3.1409255080
 H   -1.2907147679   -0.8012528083    1.8428979714
 H   -0.5954402569   -3.1606267090    2.9055599894
 H    0.3007435480   -3.9587351288    0.5110532363
 H   -0.7519590799   -2.5733378324    0.0463621187
 H    2.1195338187   -1.4678050339   -0.8605837849
 H    2.1012476882   -2.0308600081    2.9354959099
 H    1.9325933500   -3.6449207313    2.1659486576