12

 C   -0.0075904581    1.5039294336    0.1277979097
 C    1.5107427782    1.4358321876   -0.0383709599
 C    1.8997498955    0.0798238000    0.5791798732
 O    0.7218286018   -0.5156656641    1.1215094441
 C    0.0377767989   -0.0336237693   -0.0710117449
 C    1.4129431021    0.1295620248   -0.8263531039
 H   -0.4297591405    1.8590810447    1.0731128402
 H   -0.4780332996    2.0074237483   -0.7206015871
 H    2.2192363148    2.2438179614   -0.1668773490
 H    2.8609041957   -0.1542250046    1.0166724321
 H   -0.8284745042   -0.6309394920   -0.3464693610
 H    1.8088964454   -0.1986867404   -1.7767521136