17

 C   -0.0443014679    1.4763628239    0.2116354264
 C    1.2866498089    0.8273001897   -0.0806733868
 C    1.7626749109   -0.0024764443    1.1072633294
 O    0.4775357974   -0.6917609308    1.1794476520
 C    0.0594871505   -0.0229910543   -0.0238786133
 C   -0.3365042458   -0.7228273930   -1.2469309706
 C    0.2826694335   -0.3580541928   -2.3752816462
 C    1.3422422733    0.7163578044   -2.4475218414
 O    2.0398653479    1.0018673871   -1.2234647737
 H   -0.2850263595    1.8340865296    1.2089451540
 H   -0.4773042263    2.0445773007   -0.6045000761
 H    2.5641853532   -0.6950412000    0.8297998984
 H    2.0092012689    0.5157087186    2.0402490905
 H   -1.0838524622   -1.5100405989   -1.2230185344
 H    0.0188811474   -0.8096329636   -3.3274187940
 H    2.1178046386    0.4294007268   -3.1659652665
 H    0.8944548612    1.6498533469   -2.8276224075