15

 C   -0.0850576990    1.5141382141    0.0533274118
 C    0.1325785765    0.0394541209    0.0115522121
 O   -0.8053489768   -0.8238990607    0.6787478600
 C    0.5956162688   -0.9484567441    0.9822348006
 C    1.2941658515   -1.7839653478   -0.1358774964
 C    0.3196595661   -2.1897931222   -1.2087749627
 C    0.8052001068   -0.7656162301   -1.1575878237
 H    0.8331030146    2.0476819578   -0.2141169081
 H   -0.8647101832    1.8123400325   -0.6573070991
 H   -0.3947617791    1.8260357670    1.0542246116
 H    0.8896618718   -0.8645719647    2.0221666899
 H    2.2833707749   -2.2095711769   -0.0346535774
 H    0.7484965535   -2.7858144320   -2.0082283289
 H   -0.7052493963   -2.4253732000   -0.9523835885
 H    1.3657728598   -0.2977024639   -1.9563424512