20

 C   -0.2867490506    1.4997723140   -0.0104177954
 C   -0.0341579944   -0.0025841636   -0.0389894761
 C    1.1754331633   -0.4491982041   -0.9119132457
 C    2.0452570320   -0.6122170985    0.3724078493
 C    2.9241275625   -1.8455863133    0.5003861160
 O    2.7648448574    0.5685479272    0.6823318813
 C    0.7213402797   -0.5869806726    1.2106021275
 C    0.7033218384    0.1466112378    2.4629463512
 N    0.6588644897    0.7269166039    3.4619841984
 H    0.6357873541    2.0476073325    0.1977086502
 H   -0.6761382718    1.8330861922   -0.9783504270
 H   -1.0182577176    1.7633584276    0.7596125285
 H   -0.9646531280   -0.5353649492   -0.2498899387
 H    1.0039164439   -1.3976642441   -1.4280754510
 H    1.5483318219    0.2859727854   -1.6296251964
 H    3.7425916748   -1.8087371426   -0.2292034417
 H    3.3623973548   -1.8974567750    1.5016369124
 H    2.3579174066   -2.7634691409    0.3150534602
 H    3.4992898104    0.6418319062    0.0628200941
 H    0.3931552230   -1.6122693426    1.4039375928