19

 C   -0.5236005531    1.2854900526    0.0752269412
 C    0.1137447737   -0.0872812811   -0.0775552878
 C    1.4191786437   -0.2242093422   -0.8819831600
 O    1.8196836119    0.2848815967   -1.8878528174
 C    2.0355254307   -1.1692552517    0.1615841195
 C    0.8686898696   -0.7496729605    1.1223872779
 O    1.2681039814    0.2467240492    2.0391460173
 C    0.1434250464   -1.8649050326    1.8553604955
 O    1.0414593706   -2.3356831403    2.8570690787
 H    0.1651125887    1.9772146255    0.5635186399
 H   -0.7797595432    1.6861037091   -0.9098611008
 H   -1.4381283467    1.2370459458    0.6740395130
 H   -0.6066584027   -0.8083392554   -0.4899972458
 H    2.0046295242   -2.2165773086   -0.1563469355
 H    3.0443836666   -0.9224366595    0.4979774087
 H    1.6444212421   -0.2294974351    2.7909543589
 H   -0.7753986478   -1.4620251915    2.3059792001
 H   -0.1346721410   -2.6679504760    1.1565606699
 H    0.5525752649   -2.8708169845    3.4883175066