17

 O   -0.0123027219    0.0256042467   -0.5214466980
 C   -0.0443496967    1.1332128951   -0.0492708460
 C   -1.2998614844    1.7721549865    0.5505842480
 O   -1.3120341581    3.1858711888    0.4104896129
 C   -0.0583219508    3.8368065052    0.6382379377
 C    0.5293818472    4.2785951890   -0.7101492070
 C    1.2739197330    3.0016110137   -1.1794765194
 C    1.1610892073    2.0662664071    0.0569513291
 O    0.8888963614    2.9407064232    1.1625552979
 H   -2.1871260631    1.3912698845    0.0401409405
 H   -1.3565964833    1.4658238697    1.6068809778
 H   -0.2160284573    4.6365630995    1.3661313666
 H   -0.2576732396    4.6012522575   -1.3925400839
 H    1.2247488881    5.1080592119   -0.5590529364
 H    0.8274437812    2.5464467122   -2.0661800247
 H    2.3221991952    3.2050822962   -1.4045673992
 H    2.0654396717    1.4952427733    0.2701130142