19

 C   -1.5352276949   -0.2732137465    0.7134399252
 C   -0.1338557557   -0.1636755015    0.1438766187
 O    0.7467179182    0.4228590389    0.7296671714
 C    0.1217775004   -0.8415183992   -1.2028520421
 C   -0.9349091170   -0.4693989227   -2.2444978756
 O   -1.1297810239    0.9303376498   -2.3549419884
 C    1.5846071704   -0.7852242708   -1.6979729490
 O    1.6918168516   -2.2259758719   -1.6964639000
 C    0.3849993107   -2.3743913027   -1.1232454513
 H   -2.1937621444    0.4015240161    0.1553362132
 H   -1.9392839282   -1.2860779911    0.6122507256
 H   -1.5254949418    0.0237140500    1.7625763089
 H   -0.6614647603   -0.9222625983   -3.2097495931
 H   -1.9084891050   -0.8817016728   -1.9596365280
 H   -0.3051520361    1.3292216349   -2.6525180799
 H    1.7378667017   -0.3669545096   -2.7017868866
 H    2.2732029024   -0.3157744222   -0.9902087834
 H    0.4195054755   -2.7917040352   -0.1082647920
 H   -0.2763498636   -2.9955427453   -1.7420101535