19

 C   -0.2300871376    1.5389922361   -0.0383466486
 C    0.0758140682    0.0317068570    0.0393055327
 C    0.7994264299   -0.4699870695   -1.1728565796
 C    2.0730814656   -0.8686006768   -1.3010096833
 C    2.4494075798   -1.2999118742   -2.7015388200
 O    3.0594018778   -2.5846284587   -2.7334575956
 C    1.1253512774   -1.1815629273   -3.4877023136
 C    0.1202196000   -0.5836278314   -2.4978213524
 O   -1.0204035393   -0.2604187643   -2.7403080095
 H    0.6926894712    2.1238138283   -0.1059795201
 H   -0.8436115553    1.7590120652   -0.9150212583
 H   -0.7742874686    1.8649038118    0.8528869533
 H    0.6631866061   -0.1877041813    0.9373388393
 H   -0.8718989306   -0.5127267906    0.1280448647
 H    2.8048836339   -0.9096287233   -0.4996041505
 H    3.2138453360   -0.6322046313   -3.1150483485
 H    2.4628864701   -3.2023826765   -2.2953064619
 H    1.1929244458   -0.5583628841   -4.3834027849
 H    0.7838412097   -2.1692881691   -3.8137625432