18

 C    0.0102355394    1.5009782857    0.1583897371
 C   -0.1155935826   -0.0121647787   -0.0437888718
 C    0.6673514098   -0.5193389933   -1.2497698250
 C    2.2441285918   -0.4904217794   -1.2031188654
 C    2.2299758517   -2.0120744473   -1.4199192955
 O    1.4764805810   -2.5918172505   -0.3465726711
 C    0.7487944574   -2.0437300392   -1.4456086663
 C    3.1959959087   -2.8216970518   -2.0943057187
 N    3.9969329038   -3.4384930874   -2.6561235366
 H    1.0536800320    1.7983444142    0.3083878608
 H   -0.3695393268    2.0521174098   -0.7090074207
 H   -0.5561739394    1.8285068997    1.0350757635
 H    0.2350194502   -0.5425602593    0.8485051117
 H   -1.1727574338   -0.2794694237   -0.1706151097
 H    0.3174709905   -0.0404209567   -2.1704422627
 H    2.6878330479    0.0601299726   -2.0338146650
 H    2.7056320685   -0.1822903317   -0.2626892882
 H    0.0804080899   -2.7122707831   -1.9762990564