18

 C   -0.0122830862    1.4709217021   -0.0932859855
 O    0.1695545195    0.0758660384    0.0877303857
 C    0.6129265912   -0.6091952565   -1.0522285062
 C    1.1529703435   -1.9980693636   -0.7015631553
 C    1.0462456479   -2.7842646670   -2.0245195459
 C   -0.2881679629   -2.3170500030   -2.6340980963
 C   -0.4936654403   -0.8991598574   -2.0959461062
 O   -1.3799344680   -0.1425309144   -2.4015298007
 H    0.9238967745    1.9516536180   -0.4192951094
 H   -0.7970724823    1.6868870522   -0.8242235253
 H   -0.2954796315    1.8779614162    0.8803623247
 H    1.3965440806   -0.0290532115   -1.5776695129
 H    2.1655671543   -1.9684743956   -0.2943719192
 H    0.4978399928   -2.4347901282    0.0614360976
 H    1.8777201136   -2.5156468222   -2.6862645866
 H    1.0918896736   -3.8650156330   -1.8739469913
 H   -0.3354017681   -2.3375637466   -3.7257764783
 H   -1.1273807222   -2.9234326878   -2.2696314788