16

 C    0.0913711662    1.5334243608   -0.1166692370
 C    0.0839388000    0.0836976747   -0.0077792350
 C    0.0708386674   -1.1168493072    0.0838503609
 C    0.0393346968   -2.5602512484    0.1820991262
 O    0.0356166496   -3.0645264900    1.5431842150
 C   -1.2916151346   -3.6001330206    1.4196335810
 C   -1.3366730017   -3.2743670769   -0.0955972963
 C   -2.4453130881   -2.4810579370   -0.5878181609
 N   -3.3383746962   -1.8573957610   -0.9743191105
 H    0.9177025060    1.8812903739   -0.7455311969
 H   -0.8440687572    1.8967971403   -0.5548783481
 H    0.2017742396    1.9976496785    0.8691799341
 H    0.8642317726   -3.0057907347   -0.3858882556
 H   -1.3369568549   -4.6639117120    1.6724980695
 H   -2.0222547141   -3.0459846440    2.0189468580
 H   -1.2111269714   -4.1568509565   -0.7255859544