22

 C    0.3247268045    1.4996106956    0.0651110724
 C   -0.0229533008    0.0263857872   -0.0687668891
 O    0.6900343504   -0.5075215115   -1.1631539345
 C    0.4206900165   -1.8774777619   -1.3885692732
 C    1.1920178125   -2.3226026714   -2.6020850362
 C    2.6315517833   -2.7622312042   -2.4835339346
 C    1.5677620604   -3.7681811213   -2.8487781937
 C    1.1973785338   -4.9008770351   -1.9139503044
 H    1.3983861365    1.6266805059    0.2305703968
 H    0.0533580618    2.0412181181   -0.8455489123
 H   -0.2125295706    1.9447481178    0.9080185104
 H    0.2344427994   -0.5167740661    0.8575177897
 H   -1.1091679493   -0.1017817684   -0.2200931040
 H    0.7003216304   -2.4692750660   -0.5016087246
 H   -0.6629440634   -2.0262586819   -1.5428427801
 H    0.9419804064   -1.7455809987   -3.4882453240
 H    3.3408620936   -2.4407443778   -3.2381217634
 H    3.0468451261   -2.8198659326   -1.4815551379
 H    1.5450333113   -4.0549344818   -3.8973953239
 H    1.2936144331   -4.6155255444   -0.8626081831
 H    0.1665664724   -5.2363593519   -2.0753584292
 H    1.8546152416   -5.7622691794   -2.0770176911