19

 C    0.0179088969    1.5285525965    0.0291044832
 C    0.0078254322    0.0219268140    0.0237090893
 C    0.5236141798   -0.9725412546   -1.0506540957
 N   -0.0311827634   -1.9353902195    0.0182564679
 C    0.6468727483   -0.9807713144    1.0214460107
 C   -1.1819932679   -0.9471799632    0.0906288820
 C   -2.3975151515   -1.0759040228    0.9306161055
 C   -2.4885826601   -1.0698286078   -0.6003331411
 H    1.0407426117    1.9157312839   -0.0294425968
 H   -0.5410322800    1.9286915816   -0.8240534350
 H   -0.4371012108    1.9216467200    0.9449922301
 H   -0.0117867742   -1.0241134348   -2.0019056075
 H    1.6054558519   -1.0600577788   -1.1886959026
 H    1.7374110709   -1.0688482097    1.0295591660
 H    0.2280005846   -1.0401356072    2.0290244559
 H   -2.5710874837   -2.0215935442    1.4339233292
 H   -2.7653608217   -0.2053530010    1.4651320210
 H   -2.9167856897   -0.1952403882   -1.0805569435
 H   -2.7210477333   -2.0115821500   -1.0869879686