19

 C   -0.2170264070    1.5902386656   -0.0650103234
 C    0.0227314411    0.0882608344    0.0226575587
 C    1.1043570804   -0.6229563203   -0.8379889160
 N    1.6609570275   -1.3509420320    0.3641646935
 C    2.1902161261   -0.3006876535    1.2751548000
 C    2.8633261421    0.8778779570    0.7920122285
 N    3.4360441853    1.8106513395    0.4160751281
 C    0.7175468232   -0.5427207694    1.2382771258
 C    0.0008913535   -1.1175137813    2.4255905075
 H    0.7058451986    2.1639061254    0.0412226869
 H   -0.6611383980    1.8466000458   -1.0328170280
 H   -0.9149589209    1.9180456724    0.7131879736
 H   -0.9305702138   -0.4336177318   -0.1130148561
 H    0.7138278069   -1.3479847015   -1.5528443737
 H    1.8365893322    0.0170828739   -1.3380164120
 H    2.7003506237   -0.7439039442    2.1265117836
 H   -0.3657226516   -0.3184511617    3.0797758506
 H   -0.8592693599   -1.7139314409    2.1043220505
 H    0.6612280405   -1.7622243475    3.0124261017