21

 C    0.2488318807    1.5921105675   -0.0605214750
 C    0.2579782012    0.0617993651    0.0013250355
 C    0.6066702032   -0.5260868458    1.3904171392
 C   -0.4435393358   -0.1689774253    2.4517115987
 C    0.8231099573   -2.0145012692    1.2908315245
 C    0.0646943036   -3.0179114008    1.8124496197
 O    0.5755296026   -4.2395781367    1.4922738239
 C    1.6885960207   -4.0131723057    0.7485329213
 C    1.8918348523   -2.6816070188    0.5904270224
 H    1.2111200307    2.0069290030    0.2613093833
 H    0.0653730967    1.9376086321   -1.0827523711
 H   -0.5287427952    2.0270228730    0.5747890522
 H   -0.7184994515   -0.3327016278   -0.3087564704
 H    0.9812964602   -0.3202718938   -0.7284517388
 H    1.5619032114   -0.0750640551    1.6985669138
 H   -0.5247577438    0.9128719031    2.5829950038
 H   -1.4331232951   -0.5438763757    2.1656487814
 H   -0.1847980765   -0.6042852294    3.4215390361
 H   -0.8276732233   -3.0348800274    2.4148644771
 H    2.2170772539   -4.8917550130    0.4167499149
 H    2.7030352166   -2.2168802092    0.0507729477