15

 O    0.3171323389    1.2636293779   -0.4606673526
 C    0.0510072532   -0.0522823490   -0.0460531544
 C    0.1701007838   -0.3905476867    1.4772928410
 C   -1.3170082201   -0.7858208657    1.4899586393
 O   -2.1723330336    0.3541674428    1.7498770699
 C   -2.4628421690    0.5142096235    0.3387247215
 C   -1.4363903863   -0.5520868513   -0.0442893519
 H   -0.0604102386    1.8666956244    0.1884228316
 H    0.6846402888   -0.6886547940   -0.6686736974
 H    0.8590930221   -1.2142379955    1.6848107138
 H    0.4136527206    0.4503751656    2.1327191966
 H   -1.6379431570   -1.6812590080    2.0278550013
 H   -3.5011890070    0.2405141558    0.1123677972
 H   -2.2824608307    1.5356311219   -0.0191469571
 H   -1.7138869652   -1.3039815316   -0.7813617688