14

 N   -0.0400257875    1.3683100711   -0.0058243016
 C    0.0556552662    0.0044259173   -0.1295581487
 O    1.0944259685   -0.5891297534   -0.3056969277
 N   -1.1850804996   -0.6701590365   -0.0700315499
 C   -2.4683692927   -0.1382011809   -0.1102079254
 C   -3.3567785422   -1.1713970692   -0.0079349966
 C   -2.6005660074   -2.3816399689    0.1024212938
 C   -1.2773981869   -2.0468391559    0.0554663460
 H    0.8518852078    1.8282349119    0.0878394745
 H   -0.7965039177    1.7630561720    0.5287274606
 H   -2.6311733852    0.9138111380   -0.2730632970
 H   -4.4322206958   -1.0797494654   -0.0220069233
 H   -2.9943354638   -3.3811850655    0.2038331656
 H   -0.3744625838   -2.6304155247    0.1034286698