21

 C   -0.4534472160    1.5395761114    0.3589674715
 C   -0.1075647611    0.0619374373    0.2061995534
 C    0.2923852733   -0.4561671383   -1.1815975715
 C    1.6098884997    0.0997394928   -1.6222109527
 C    1.6136172838   -1.0314620438   -0.6157982621
 C    2.2400444497   -2.2832482324   -0.8709444812
 C    2.7711593037   -3.3486376084   -1.0548158695
 C    1.2459750757   -0.5069337450    0.7917678540
 C    2.2340987771    0.4093822752    1.5019945638
 H    0.3206067475    2.1945479261   -0.0521032918
 H   -1.3890543038    1.7699989701   -0.1623348241
 H   -0.5880242501    1.8058641518    1.4129568172
 H   -0.9361764734   -0.5346519822    0.5994579302
 H   -0.3771018856   -0.9385871363   -1.8838649120
 H    1.9249756718   -0.1893173123   -2.6188372270
 H    1.9317128445    1.0946149552   -1.3277249797
 H    3.2390392230   -4.2861197427   -1.2242116386
 H    1.0220919763   -1.3582925947    1.4402108700
 H    2.5202949638    1.2699308436    0.8905441279
 H    1.8104058416    0.7929543660    2.4364206632
 H    3.1492190885   -0.1381839633    1.7513446187