18

 C   -0.1796775953    1.5897471272    0.0503821376
 C    0.0320976931    0.0679101283    0.0113417530
 C    0.8254834824   -0.4179555552   -1.1827777045
 C    1.8217791666   -1.2470925404   -0.8307149618
 C    2.7180143304   -1.8903672790   -1.7281128868
 N    3.4552340651   -2.4344668421   -2.4371682298
 C    1.9146038564   -1.3998750710    0.6579953434
 C    2.2507306318   -0.1202991243    1.3951979316
 C    0.8081198885   -0.5133108387    1.2002155747
 H    0.7746807020    2.1218611385    0.0994448277
 H   -0.7146396444    1.9348409176   -0.8400968215
 H   -0.7702577930    1.8717724267    0.9271244105
 H   -0.9631836123   -0.4009172669   -0.0256412429
 H    0.6097419041   -0.1095288637   -2.1991757202
 H    2.1774710791   -2.3596756812    1.0855773506
 H    2.6497835154   -0.2168419273    2.3990760279
 H    2.6685394800    0.6992174406    0.8201208467
 H    0.2469982201   -0.8132418690    2.0770759037