19

 C    0.0014457799    1.5725978605    0.0042080563
 C   -0.0568984030    0.0581090479    0.2084699771
 C   -1.4568382030   -0.5235617324   -0.0724815222
 O   -1.8868092716   -0.2052967631   -1.3892921263
 C   -1.4849285470   -2.0143956586    0.1260661274
 C   -1.8299155708   -2.7746374613    1.2113563744
 N   -1.6366852693   -4.0838674986    0.8190342484
 C   -1.1985084369   -4.0606582512   -0.4683133830
 N   -1.0929538339   -2.8309458546   -0.9152717509
 H    1.0148613012    1.9552074942    0.1597940158
 H   -0.3155820585    1.8300256835   -1.0093229567
 H   -0.6628515681    2.0927445187    0.7043156262
 H    0.6573729524   -0.4445791062   -0.4556866641
 H    0.2311371499   -0.2041744298    1.2347088958
 H   -2.1743247942   -0.0519336887    0.6125977221
 H   -1.5732250980   -0.9310815386   -1.9460066261
 H   -2.1876521376   -2.5211187921    2.1951412847
 H   -1.8075094573   -4.9031949973    1.3774829107
 H   -0.9792775241   -4.9610551722   -1.0223110597