20

 C    0.0401006930    1.5301816072    0.0814222767
 C   -0.0462820259   -0.0054130781   -0.0281829823
 C   -1.5093668653   -0.4896219972    0.0110933061
 C    0.6361866392   -0.4838433416   -1.2316596812
 C    1.1862161358   -0.8533994886   -2.2380472458
 C    1.8564549573   -1.3400804647   -3.4368557392
 C    2.0536815103   -2.8784242783   -3.3973032547
 C    2.7253044018   -3.3785185082   -4.5943549608
 N    3.2575650938   -3.7537155710   -5.5489284840
 H    1.0797893389    1.8674703732    0.0818531851
 H   -0.4705280164    2.0055586161   -0.7616786496
 H   -0.4352088597    1.8701423939    1.0069333060
 H    0.4713937383   -0.4322688506    0.8423228381
 H   -2.0731343075   -0.0808303059   -0.8331081316
 H   -1.5656072185   -1.5801627798   -0.0400003025
 H   -1.9918236255   -0.1615154836    0.9372227220
 H    1.2797581198   -1.0790667173   -4.3317076112
 H    2.8349403482   -0.8594393196   -3.5510087940
 H    2.6419193515   -3.1537383001   -2.5162899744
 H    1.0825511608   -3.3737016158   -3.2992037229