13

 O    0.0915946725    1.1852901559   -0.8072501530
 C    0.0510986154    0.1249423024    0.1363919921
 C   -1.2787340309   -0.4628033944    0.3007584258
 C   -2.3961715078   -0.8899237029    0.4445337157
 C   -3.7187880048   -1.4791043645    0.5865752051
 C   -3.7995938865   -2.8828573627   -0.0212996698
 O   -4.4268744142   -3.7817484344    0.4671821698
 H   -0.5767620765    1.8283935210   -0.5485740738
 H    0.7508803797   -0.6312201517   -0.2361948614
 H    0.4281118280    0.4461223843    1.1205235166
 H   -4.0438601319   -1.5376471195    1.6304158902
 H   -4.4614838934   -0.8641762158    0.0549639510
 H   -3.2351448895   -3.0011695777   -0.9712425884