18

 O   -0.0260511926    1.2453348910   -0.5664209402
 C    0.0557069238   -0.0479118972    0.0103280786
 C    0.2946638668   -1.1604402731   -1.0579876774
 C   -1.2445180874   -1.3490310107   -1.1592919417
 C   -1.3996798446   -0.5630956789    0.1660754502
 O   -1.5928077110   -1.4504760592    1.2743355282
 C   -0.5544635485   -1.7107972133    2.1054974004
 N    0.5874842302   -1.1757348758    2.1824425806
 C    0.8828149146   -0.0621534319    1.2883213620
 H    0.8461572604    1.4730249642   -0.9072529936
 H    0.8213733077   -0.8372831317   -1.9590883241
 H    0.8029463709   -2.0330268708   -0.6394579738
 H   -1.6804691352   -0.8089303750   -2.0015922537
 H   -1.6329383332   -2.3681673362   -1.1383830436
 H   -2.1699050983    0.2079721435    0.2230211667
 H   -0.8346112535   -2.5140113487    2.7847478021
 H    1.9556144190   -0.0798739700    1.0544424450
 H    0.6929159009    0.8781349238    1.8228824343