21

 C   -0.0071765422    1.5019492473   -0.0325917571
 C    0.0154214637   -0.0114687885    0.0146390168
 N   -0.3369578065   -0.6904322742    1.2738625705
 C    1.0677079485   -0.7091725636    0.8046573449
 C    1.6175278459   -2.0385414117    0.3028970644
 C    1.7659028756   -2.0596028017   -1.2321726986
 C    0.4806698483   -1.6594238857   -1.9315214401
 N   -0.7600245051   -2.0980267009   -1.2755373206
 C   -0.4214299243   -0.6670101405   -1.2766728723
 H    0.5627448642    1.8823635067   -0.8881640438
 H   -1.0334543888    1.8778538667   -0.1268828584
 H    0.4281665201    1.9299848042    0.8760017205
 H   -0.4422817921    0.0066823710    2.0084409847
 H    1.7716524803   -0.0714945955    1.3363058692
 H    2.5887592189   -2.2424052306    0.7646576887
 H    0.9313287431   -2.8325762858    0.6046569089
 H    2.5621370918   -1.3716039141   -1.5481321281
 H    2.0696522058   -3.0618206116   -1.5578351707
 H    0.5138989745   -1.6630987731   -3.0195661651
 H   -1.4882711589   -2.2796236524   -1.9598721287
 H   -1.0064860028   -0.0223109958   -1.9300711852