16

 O   -0.1178117196    1.3298927687   -0.0274891946
 N    0.0218010819   -0.0645608843    0.0352737425
 C   -1.1166912673   -0.6506572563   -0.0059091715
 C   -2.4707905098   -0.0838709092   -0.0774206618
 C   -3.3802079165   -1.0747787079   -0.0104548253
 C   -2.7467613499   -2.4194729050    0.0471613476
 C   -1.9127473335   -2.7931582823   -1.1714987936
 O   -2.0455291731   -2.2105081005   -2.4193214057
 C   -1.2360946576   -2.1406159069    0.0214814415
 H    0.7967111509    1.6271987346    0.0197605855
 H   -2.6665607388    0.9739479465   -0.1747597424
 H   -4.4550962315   -0.9376904379   -0.0398889377
 H   -3.1944951611   -3.2065078801    0.6436847926
 H   -1.7117303130   -3.8530561039   -1.2887332007
 H   -2.3087650788   -1.2891934911   -2.3011791414
 H   -0.5181505323   -2.7166957844    0.5912169850