17

 O    0.0920939721    1.4735656218   -0.1375190471
 C    0.0702476146    0.0745588249   -0.0161898421
 C    0.3087081005   -0.5343989356    1.4565316741
 C   -1.2284015900   -0.7233245366    1.4924880717
 C   -2.5855443093   -1.4998570649    1.4444076570
 N   -2.8253597439   -0.3180405897    0.4446861029
 C   -2.1354306983    0.5329296761    1.5200842327
 C   -1.3435779730   -0.6500799772   -0.0002105064
 H    1.0053464174    1.7675338877   -0.0543758770
 H    0.7177359105   -0.3892967435   -0.7732035548
 H    0.8820956804   -1.4642424523    1.4057632816
 H    0.7573313102    0.1351679770    2.1969327190
 H   -2.5868389986   -2.4847161342    0.9701260015
 H   -3.2675086450   -1.4579981117    2.2994476054
 H   -2.7494241760    0.6835053969    2.4134237039
 H   -1.7397865399    1.4729142484    1.1415139942
 H   -1.3134005818   -1.5639408771   -0.5988107968