18

 C   -0.0121703574    1.3019003236   -0.2112226117
 C    0.0121188872   -0.0918052756   -0.8118736293
 O    1.2617137773   -0.6919604763   -0.4745164059
 C    1.3954470619   -2.0302142652   -0.8595463650
 C    1.5501934158   -2.2234684368   -2.3628703896
 C    1.1795744350   -3.5041758773   -2.9984425201
 O    0.3404319861   -2.3619003866   -3.1224007007
 C    2.5706084402   -1.4064493024   -2.9989126729
 N    3.3944149880   -0.7633574135   -3.4912994354
 H    0.0985743788    1.2552575496    0.8757459962
 H    0.8046862106    1.9063292195   -0.6148566547
 H   -0.9590879128    1.7972203781   -0.4451558205
 H   -0.8099880169   -0.7078261824   -0.4137100540
 H   -0.1123376088   -0.0475636682   -1.9022046748
 H    2.2954376157   -2.4066167919   -0.3608768826
 H    0.5341965914   -2.6389341182   -0.5405699125
 H    1.6921524673   -3.8146567966   -3.9058760805
 H    0.7976091504   -4.3053839998   -2.3674384064