18

 O    0.0456223727    0.0630123539   -0.0672360730
 C    0.0199492419    1.2613585878   -0.0042201550
 C   -1.1840741406    2.2171975718    0.0347485747
 C   -0.3833531014    3.5155888826    0.0358702275
 C    0.7635876838    3.3489943743   -1.0086324583
 C    1.7153610494    4.5001860896   -0.6798769493
 C    1.6320996015    4.3849202335    0.8740085325
 N    0.6970846620    3.2486834371    1.0838114156
 C    1.1738916758    2.2443923730    0.0258242563
 H   -1.8353626496    2.0884472498   -0.8342631028
 H   -1.7727304318    2.0747613760    0.9449522434
 H   -0.9243820151    4.4588705721    0.1323914528
 H    0.5723654421    3.1197017385   -2.0598116073
 H    2.7232559626    4.3418957551   -1.0730016824
 H    1.3494751369    5.4591511964   -1.0591852293
 H    2.5928819828    4.1604784762    1.3434492690
 H    1.2197761517    5.2787642822    1.3498625273
 H    2.1856368252    1.8489235503    0.1091204084