14

 O    0.1076244955    1.3640919987    0.0678070170
 C    0.0809333553    0.0241792521    0.0680322830
 N    0.1144753398   -0.6636839337   -1.0572894429
 O    0.0712414283   -2.0260546365   -0.6739070828
 C    0.0150429059   -2.0489569629    0.6543024374
 C    0.0163660951   -0.8203502669    1.2057724206
 C   -0.0486132569   -0.9526614372    2.6913493436
 O   -0.0859907397   -2.3846432649    2.9029230518
 C   -0.0495002042   -3.1297257765    1.6793787884
 H    0.1521014414    1.6570033733   -0.8529624976
 H    0.8264225344   -0.5393458527    3.2097623029
 H   -0.9468871322   -0.5040528441    3.1353368675
 H   -0.9481705268   -3.7561961100    1.5907132602
 H    0.8278146142   -3.7915812587    1.6652320210