12

 C   -0.3582796094    1.5284926732    0.0273926258
 C    0.0699339107    0.0794163337   -0.0157854342
 C    0.8637227741   -0.4179363937   -1.2398934810
 C    1.9879562376   -0.6230298478   -0.2237313323
 O    3.1089295937   -1.0167030686   -0.2131041265
 O    1.2475970946   -0.1699745896    0.8378198178
 H    0.4602666721    2.1861595575   -0.2808143486
 H   -1.2070892820    1.6900487155   -0.6451537756
 H   -0.6645626989    1.8099325407    1.0388683907
 H   -0.7361356881   -0.5904947591    0.2957438774
 H    0.5135313534   -1.3357859878   -1.7144634927
 H    1.0808135423    0.3314260459   -2.0036904205