21

 C   -0.2074462704    1.5897289352    0.3775435783
 C   -0.2056103628    0.0595392733    0.3139316667
 C   -1.5060439372   -0.5640685734   -0.2532329794
 C   -1.7394307932   -0.1838791384   -1.7224252151
 C   -1.5053670156   -2.0565262014   -0.0855774772
 C   -1.4257699630   -3.1064273139   -0.9676619972
 N   -1.4457653454   -4.3181862511   -0.3108196615
 C   -1.5378600786   -4.0152125667    0.9609669078
 N   -1.5753589361   -2.6647297703    1.1554601326
 H    0.7065292601    1.9586928057    0.8530642068
 H   -0.2636427313    2.0426014253   -0.6166530219
 H   -1.0579224065    1.9619098413    0.9605674892
 H    0.6398524202   -0.2924623133   -0.2904410399
 H   -0.0360613603   -0.3368213547    1.3229198488
 H   -2.3439977701   -0.1563708738    0.3344328758
 H   -0.9050108292   -0.5182976457   -2.3483008869
 H   -2.6537825403   -0.6458241327   -2.1045194939
 H   -1.8340028353    0.8981771368   -1.8399122333
 H   -1.3576459179   -3.0595537337   -2.0435176391
 H   -1.5833081102   -4.7162961718    1.7813127777
 H   -1.6576144570   -2.1922947567    2.0402231615