17

 C    0.0049867329    1.4928542120    0.0912845861
 C   -0.0052579429    0.0054600437   -0.0360258966
 C   -0.0650335302   -0.7945623808   -1.1632086195
 C   -0.0476539602   -2.1494624203   -0.7413132091
 N   -0.1627908956   -3.2791680732   -1.5534633227
 C    0.0278343257   -2.1507266131    0.6498871223
 N    0.0442865549   -0.8144871397    1.0503716746
 C    0.0814410950   -3.2281613831    1.5430664932
 C    0.1404651506   -4.1716116611    2.2965318112
 H    0.9161081246    1.8576484148    0.5816271662
 H   -0.0459691724    1.9528926104   -0.8978421461
 H   -0.8487600045    1.8607836012    0.6736127049
 H   -0.1262950573   -0.4398064770   -2.1811633717
 H    0.3215749937   -3.1901494360   -2.4365315986
 H    0.1230077402   -4.1278056080   -1.0815291169
 H    0.0964135361   -0.5183187760    2.0090837839
 H    0.1687871294   -4.9991501739    2.9601476586