21

 C    0.0459032841    1.4966439437    0.0304014907
 C   -0.0076401652   -0.0170022008    0.0291996435
 C    0.2666473731   -0.7418180311   -1.3358458628
 C   -0.9588759030   -1.6171431119   -1.0742572062
 C   -0.9352811804   -2.1558334141    0.3467696922
 C    0.3952438512   -2.1822512945    1.0912416278
 C    0.8128170886   -0.6860023306    1.1435599398
 O    2.1933709196   -0.4420032149    0.9256085537
 C   -1.3849973858   -0.7407168324    0.0913563355
 H    1.0766740807    1.8407162602   -0.1011721508
 H   -0.5627285644    1.9187468004   -0.7757873380
 H   -0.3243733692    1.9036254274    0.9793094323
 H    0.1014639174   -0.0631321896   -2.1768685625
 H    1.2417040966   -1.2239797690   -1.4542909111
 H   -1.5839649474   -2.0813257494   -1.8286675503
 H   -1.6889868225   -2.9024856031    0.5717048434
 H    0.2852431710   -2.6089057670    2.0935480356
 H    1.1619486817   -2.7644222200    0.5674462988
 H    0.4990541078   -0.2535526084    2.1087939196
 H    2.6904391024   -0.8620604020    1.6336130598
 H   -2.3473835763   -0.3164582427    0.3470867390