17

 O    0.0750315281    1.3010256071   -0.1575736137
 C    0.0840233158   -0.0683208988   -0.0420531322
 C    0.7119321645   -1.0282506624   -1.0733836877
 C    0.0959122209   -1.9412914770    0.0348767149
 C    0.7104451254   -0.9617301859    1.0797687884
 C   -1.1697117798   -1.0336577309    0.0058109870
 O   -1.9411302261   -0.8675303805    1.1824185772
 C   -2.1224638712   -1.0760842972   -1.1694113855
 O   -2.0193425787   -1.7747569832   -2.1468763994
 H   -0.3339784554    1.6689030541    0.6343724335
 H    0.2727582343   -1.0768858262   -2.0670387626
 H    1.8028791937   -1.0169085954   -1.1061185816
 H    0.1054146792   -3.0277864494    0.0617898027
 H    1.8013305438   -0.9472514007    1.1298454846
 H    0.2450474789   -0.9279239217    2.0629016134
 H   -2.4577766573   -1.6666421076    1.3317320527
 H   -2.9953600862   -0.3996963042   -1.0277386518