18

 C   -0.1950202810    1.5520349631    0.0920520198
 C   -0.0844460705    0.0418362190    0.1979134626
 O   -1.3318459506   -0.5150227961   -0.2292788538
 C   -1.4216981283   -1.8911192544   -0.1430166389
 C   -1.7023674350   -2.5255464987    1.2230684115
 C   -2.7952539956   -2.4294893040    0.2076114552
 C   -0.6171218573   -2.7020075694   -1.0939615677
 O    0.1573859469   -2.2572708487   -1.9036464990
 H    0.7386456020    2.0223136754    0.4147753222
 H   -0.3931638424    1.8488551905   -0.9415068251
 H   -1.0086205978    1.9273305585    0.7197120087
 H    0.7259045511   -0.3372041752   -0.4335567680
 H    0.1178626565   -0.2636138498    1.2359858586
 H   -1.2724788933   -3.4963121460    1.4449607088
 H   -1.7191402545   -1.8295130389    2.0532887431
 H   -3.5494852887   -1.6637487477    0.3420752278
 H   -3.1343334796   -3.3325310499   -0.2878913441
 H   -0.7899436319   -3.8002748379   -0.9945502918