18

 N   -0.0120828479    1.3183293404    0.2141592260
 C    0.0271017837    0.0229208492   -0.2185907439
 O    1.0200306871   -0.4604871536   -0.7276350434
 C   -1.2713068414   -0.7570205751   -0.0233761296
 C   -1.0248708892   -2.2594515867    0.1168784641
 C   -2.3178581930   -3.0778430790   -0.0574483439
 O   -2.9440900960   -2.8202420063   -1.3141613203
 C   -2.0649827651   -4.5088472806    0.1342064233
 C   -1.8278497875   -5.6811972427    0.2544793777
 H    0.7751155320    1.9100827982    0.0034069288
 H   -0.8614176340    1.7466171048    0.5379692919
 H   -1.8292553715   -0.3645849100    0.8352616377
 H   -1.8964540272   -0.5859065756   -0.9085285474
 H   -0.2920805863   -2.5684395818   -0.6350379300
 H   -0.5858188373   -2.4916949346    1.0930954484
 H   -3.0549846987   -2.7465186249    0.6854505495
 H   -2.4075669143   -3.2444636388   -1.9938133378
 H   -1.6323866831   -6.7186998828    0.3708442688