19

 C   -0.2014032840    0.7830025012    1.2624404173
 O    0.0194300577    0.1529504698    0.0172773783
 C    1.1408320471   -0.7019265765   -0.0223691290
 C    0.8831918067   -2.0842345674    0.5743299773
 N    1.9238448036   -3.0797357487    0.2414672835
 C    1.8416753690   -3.6917471814    1.5820921766
 C    1.1278788697   -2.4044005741    2.0964798996
 C    1.9951635608   -1.4764933895    2.8019370699
 N    2.6783842076   -0.7331459502    3.3661026836
 H    0.6972108178    1.3055203008    1.6191555680
 H   -1.0025731906    1.5109670975    1.1125048884
 H   -0.5189370643    0.0767700725    2.0443905556
 H    1.3758316056   -0.8508484672   -1.0829262805
 H    2.0205492923   -0.2397086162    0.4493697459
 H   -0.1403599194   -2.3891014098    0.3093202635
 H    1.7141328971   -3.6915073726   -0.5394719170
 H    1.1763571979   -4.5623242234    1.6568605035
 H    2.8066976073   -3.9362166785    2.0337700616
 H    0.2246510779   -2.5695503863    2.6854901240