14

 O   -0.0956574724    1.3827851521   -0.0501960215
 C    0.0312718447    0.0261781197   -0.0232168221
 C   -0.0338696964   -0.9990918379    1.0850226317
 C   -1.1047658015   -0.9868931430    0.0107342652
 C   -0.2257123530   -1.9834532651   -0.7956035854
 C   -0.5362538152   -3.0919522694   -1.6179967979
 C   -0.8312894140   -4.0168403943   -2.3293521524
 C    0.9020925711   -0.9955142543   -0.8247418864
 N    0.8356609657   -1.9812955440    0.3018722500
 H    0.6542157256    1.7744864882    0.4136442969
 H   -0.0882156320   -0.9484651346    2.1646800181
 H   -2.1702098808   -0.8215174925    0.0678220069
 H   -1.0829000320   -4.8390441561   -2.9524189626
 H    1.7556027202   -0.9280884788   -1.4898526806