19

 C   -0.1344855280    1.5504629984   -0.0658420778
 N   -0.0658434742    0.0888780841    0.0061150649
 C   -1.2145687718   -0.7237992381    0.5749729898
 C   -0.1851648899   -1.8854437184    0.6689008234
 C    0.5025848819   -0.6088246740    1.2270642226
 C   -0.8149927272   -0.3888944423    2.0385477656
 O   -1.1413634946    0.8840762745    2.5506404072
 C   -1.2120557951    1.0236197335    3.8899222342
 N   -1.4023235508    2.1633736604    4.3949669986
 H   -0.5209703186    2.0689337262    0.8148196608
 H    0.8757755381    1.9182705492   -0.2766634870
 H   -0.7576570989    1.8099180037   -0.9287029793
 H   -2.2086008740   -0.7283427792    0.1260241737
 H   -0.3951800300   -2.7013983419    1.3625413030
 H    0.2015029945   -2.2148738534   -0.2923854552
 H    1.5368395149   -0.4774400335    1.5484852430
 H   -1.0481771524   -1.1563403095    2.7886239066
 H   -1.1002553250    0.0743321607    4.4326439256
 H   -1.4510542887    2.0895839396    5.4089127002