22

 C   -0.5521663412    1.8060178112   -0.3335517930
 C   -0.3705274123    0.2857234081   -0.3136589385
 C   -1.6617284887   -0.4574247085    0.0532509194
 C   -1.5528699628   -1.9905789744    0.0223018946
 N   -1.0265660715   -2.7397422606    1.2036596124
 C   -0.1726582161   -2.1227926378    2.1929593629
 C   -2.3586670818   -3.2136877544    1.6240715256
 C   -2.8989618179   -2.6867306637    0.2896892356
 O   -3.9398166334   -2.7490035660   -0.2928132435
 H    0.3775460645    2.3140668698   -0.6074521919
 H   -1.3207778173    2.1030080662   -1.0555678762
 H   -0.8598203446    2.1814786832    0.6487580989
 H   -0.0319909217   -0.0586224679   -1.2994802474
 H    0.4277802556    0.0237760667    0.3900410295
 H   -2.0231705383   -0.1243269534    1.0349268843
 H   -2.4463987869   -0.1865478889   -0.6655356855
 H   -1.0653502222   -2.2983609663   -0.9134705766
 H   -0.6065843497   -1.2292401933    2.6783618980
 H    0.0419707845   -2.8524532638    2.9810272753
 H    0.7829162838   -1.8371872646    1.7427583989
 H   -2.4394453168   -4.2900516584    1.8147016268
 H   -2.8020455153   -2.6714900732    2.4781434803