17

 O    0.0175390830   -0.0839487642    0.0641969556
 C   -0.0359670891    1.1243244539    0.0602054544
 C   -1.3110946002    1.9498721877    0.0727524947
 C   -1.1167827829    3.3078072570    0.7323942138
 C   -2.3267370060    4.1665677079    0.9942948661
 C   -1.6038072333    3.5336056642    2.1535265307
 N    0.0886835517    4.0134631958    0.3903880660
 C    1.0854313431    3.3028840991    0.0522878987
 N    1.1029722662    1.9107181239   -0.0283869426
 H   -1.6011920508    2.0856619437   -0.9795462938
 H   -2.0984725906    1.3623606121    0.5485718855
 H   -2.1973794942    5.2313480543    0.8412802714
 H   -3.2985208966    3.7740646982    0.7141872559
 H   -2.0690943531    2.6957416873    2.6618992378
 H   -0.9964972785    4.1722597467    2.7832488365
 H    2.0360906252    3.7750759997   -0.1887616491
 H    1.9763612663    1.4218544528   -0.1625396015