18

 O    0.0116050049    1.3855893952   -0.1292470257
 C    0.0419348805   -0.0154565454    0.0308623745
 C   -1.3427374494   -0.5938705610   -0.0242490984
 C   -1.7916737949   -2.0815266335    0.0674926670
 C   -3.1617754910   -1.9922018982    0.7015480438
 C   -3.2825869269   -0.6534352697    1.4025768508
 N   -2.4490568972    0.2043341857    0.5483313120
 C   -2.5334147747   -0.2688408422   -0.8532357587
 C   -3.0042789647   -1.7471081448   -0.7819221432
 H   -0.7773497651    1.6796476806    0.3478283806
 H    0.6621757789   -0.4288367074   -0.7735067098
 H    0.5139597376   -0.3072634706    0.9867502681
 H   -1.1589007261   -2.9572373429    0.0595608912
 H   -3.6569483947   -2.8886481078    1.0541331907
 H   -4.3076630442   -0.2699913082    1.4273521213
 H   -2.8810568510   -0.6633001926    2.4209797504
 H   -2.6904770811    0.4444296996   -1.6517333090
 H   -3.4782718610   -2.3206032068   -1.5647798457