20

 O   -1.8969613943    1.4025276362    1.5825191882
 C   -1.7998634459   -0.0116431682    1.5227619797
 C   -1.4721438854   -0.5199146337    0.1171286424
 C   -1.3897530324   -2.0498706230   -0.0087764568
 C   -2.7721003858   -2.7040644351   -0.0336582643
 O   -2.5989273361   -4.1126517489    0.0532119568
 C   -0.5853230486   -2.4577539252   -1.2545616928
 O    0.7556732138   -1.9863592954   -1.2273513964
 H   -1.0557362068    1.7641975814    1.2850232991
 H   -1.0502839757   -0.3918593976    2.2370839916
 H   -2.7742961021   -0.3814145278    1.8590501802
 H   -2.2162265639   -0.1212093096   -0.5852231429
 H   -0.5005382718   -0.1101274600   -0.1857555318
 H   -0.8629807462   -2.4542607274    0.8695571648
 H   -3.3824278212   -2.3326684098    0.8028877056
 H   -3.2915318562   -2.4230696518   -0.9653600506
 H   -3.4632566367   -4.5286024108   -0.0114728173
 H   -0.6261559914   -3.5469305078   -1.3756068919
 H   -1.0374723153   -2.0063214802   -2.1463077191
 H    1.2235900621   -2.4802617752   -0.5465379244