16

 O   -0.1719170589   -0.0572859352   -0.1744080394
 C   -0.0386467824    1.1256369567   -0.0471822423
 C   -1.2368782376    2.1531242263   -0.0311387938
 O   -0.7462112101    3.4652506534    0.3109124587
 C    0.5445238835    3.1982553694    0.7757918633
 C    1.9558960425    3.8201440997    0.8529878254
 N    2.1857138799    2.3283330743    1.2337619614
 C    0.9253928813    2.4833613638    2.0999976472
 C    1.1829740097    2.0382777032    0.0632366400
 H   -1.7187943089    2.1903804188   -1.0134320804
 H   -1.9743782725    1.8086960895    0.7038580520
 H    2.4402473850    4.1122624346   -0.0807473078
 H    2.1875873442    4.5019520502    1.6737243607
 H    1.0798258226    3.0942205767    2.9911756071
 H    0.4554080676    1.5278787284    2.3459076701
 H    1.6312993941    2.2084878901   -0.9211303422