16

 O   -0.2904260914   -0.0168079251    0.3468570245
 C   -0.0815935048    1.0729270328   -0.1150023297
 C    1.2604570306    1.7859680228   -0.0393035390
 N    1.3647959715    2.7652157227   -1.1235620806
 C    1.9342010182    2.3050136753   -2.4647482558
 C    2.2317768859    3.8053155989   -2.7228378460
 C    2.6473674094    3.5740311928   -1.2455635153
 C    3.3022989170    2.2471555865   -1.7270652132
 O    4.2079862628    1.5130848850   -1.4957482629
 H   -0.8744380359    1.6631296013   -0.6265198459
 H    1.2679619259    2.3430022335    0.9085596704
 H    2.0657064524    1.0389861684    0.0147609366
 H    1.4189065506    1.5850821735   -3.0977162131
 H    3.0168040909    4.0506252180   -3.4383590287
 H    1.3324456265    4.4128907927   -2.8282084979
 H    2.9440772506    4.2988002107   -0.4895318136