19

 C   -0.0915117091    1.4844583303   -0.0239403359
 C    0.0202967880   -0.0201355493   -0.0015854243
 C   -0.5297260857   -0.8150853995    1.1582061296
 C    0.9718296940   -0.7786198355    0.9113324607
 C    1.5023429802   -1.9089525162    0.0968973146
 C    0.9763310195   -1.9245106500   -1.1325789819
 C    0.0631875382   -0.7646153462   -1.3273069844
 C   -1.0156201641   -0.7104104020   -2.3250091623
 O    0.1986067709    0.0098869588   -2.5355551771
 H    0.6898706988    1.9286803618   -0.6462546435
 H   -1.0582550698    1.8067907793   -0.4277421504
 H   -0.0041915633    1.8931046942    0.9872995614
 H   -0.9151334561   -0.2437862851    1.9975885865
 H   -1.0465823415   -1.7507030551    0.9698526134
 H    1.6081556706   -0.2732107977    1.6297841148
 H    2.1952712457   -2.6428481102    0.4921520931
 H    1.1528818404   -2.6621716692   -1.9053889950
 H   -1.1824524312   -1.5549908281   -2.9934842306
 H   -1.8967360355   -0.1004363203   -2.1250337588