14

 C   -0.8743363566    1.6426983462   -0.5085359149
 C   -0.1493964333    0.3057766618   -0.2907706241
 C   -1.0700075357   -0.7613773806    0.1019303839
 N   -1.8027583191   -1.6063623417    0.3947364843
 C    0.7071472558   -0.1057558137   -1.5258451645
 C    1.2536865081   -1.5144547029   -1.5442723511
 O    0.9329956480    0.7026351137   -2.3889808847
 H   -0.1492490421    2.4015729380   -0.8045750884
 H   -1.6152008615    1.5526842523   -1.3058060279
 H   -1.3797305902    1.9571546331    0.4068933729
 H    0.5750698294    0.4145822581    0.5308784914
 H    1.7388142570   -1.7581675000   -0.5929152800
 H    0.4329718241   -2.2288301006   -1.6685902562
 H    1.9615920660   -1.6206001839   -2.3663973706