23

 C    0.1580868292   -1.4967601199    0.9822641446
 C   -0.2771626555   -1.2489020585   -0.4661960306
 C    0.7631389625   -0.4954672456   -1.3295926425
 C    1.9152562604   -1.4294878478   -1.6999275332
 O    3.0112480693   -0.6522820048   -2.1722103168
 C    0.0807496300    0.1439787170   -2.5443669260
 C   -0.7610943423    1.3705762462   -2.2510820069
 C    0.5953044958   -0.0147535190   -3.9119222002
 O   -0.5173840488   -0.7955714051   -3.4591639547
 H    1.0651720648   -2.1056893816    1.0474530946
 H    0.3577225948   -0.5522852221    1.5007330192
 H   -0.6257730328   -2.0209174751    1.5380310270
 H   -0.5156902629   -2.1992320168   -0.9590130811
 H   -1.2140624129   -0.6833256282   -0.4534903731
 H    1.1936324650    0.3205489133   -0.7332208776
 H    2.2121000826   -2.0097207573   -0.8158090871
 H    1.5669941850   -2.1446979690   -2.4611503328
 H    3.7379980975   -1.2510293887   -2.3679873193
 H   -0.1244020759    2.1958580980   -1.9139885810
 H   -1.2929871997    1.6873061146   -3.1514185381
 H   -1.5043784356    1.1819108647   -1.4706949826
 H    0.3533822211    0.7450189788   -4.6553769017
 H    1.5186823484   -0.5556892030   -4.0913032002