14

 O    0.0047006162    0.0223584652    0.2184115917
 C   -0.0404892561    1.2140988816    0.0581414877
 C   -1.2552201811    2.0578339694   -0.1019777948
 C   -0.9285777919    3.3255471041   -0.3695029496
 C    0.5670432038    3.5374804097   -0.4280132138
 O    0.9994991222    4.4342007716    0.6302809427
 C    1.6097721154    3.6304740083    1.5374588938
 N    1.7769758686    2.3979069126    1.2890305605
 C    1.1763348850    2.1689464289   -0.0359735202
 H   -2.2531242657    1.6469709419   -0.0158425819
 H   -1.6210044214    4.1449022057   -0.5253123534
 H    0.9040108761    3.9633149776   -1.3758011367
 H    1.9326406169    4.1371956769    2.4398726164
 H    1.9201045221    1.7597785765   -0.7244492023