20

 C    0.2797790617    1.5728669179    0.2418558651
 C   -0.1053309872    0.1138486809   -0.0373431950
 C    0.4821827406   -0.4195300693   -1.3032884390
 C    0.8520966597   -1.7795976045   -1.7909598754
 C    0.2467059939   -1.5075243386   -3.1700403059
 O   -1.0910362975   -1.9348973698   -3.2914650550
 C    0.4426678546   -0.0004638571   -2.8408175107
 C    1.9659797860    0.1039418290   -2.7234091634
 N    1.9210546590   -0.7637970037   -1.4941412651
 H    1.3656426250    1.6748150974    0.3269986939
 H   -0.0611486944    2.2333703863   -0.5623270794
 H   -0.1694770984    1.9236649777    1.1755211992
 H    0.2358651354   -0.5255421052    0.7859454127
 H   -1.1990723633    0.0191456903   -0.0729269976
 H    0.9108433485   -2.7185459326   -1.2534840657
 H    0.7613904388   -1.8861513640   -4.0590087757
 H   -1.5438402574   -1.7282713964   -2.4652106140
 H   -0.1839055458    0.7452173844   -3.3276169258
 H    2.5744272249   -0.2867928538   -3.5482929996
 H    2.3311292258    1.0922612713   -2.4341556737