16

 C   -0.0836678578    1.5680252176   -0.3147431711
 C   -0.1192866823    0.0448471884   -0.1761275509
 C    0.8276465777   -0.6369982608   -1.1934977303
 O    2.1499188269   -0.1832595672   -1.0529553345
 C    0.7842710160   -2.1430323563   -1.0274741732
 O    1.7379082601   -2.7679344438   -0.6139311744
 C   -0.4829179209   -2.9175622653   -1.3996060919
 O   -1.4613467084   -2.4083754767   -1.8783572426
 H    0.9359467988    1.9400088038   -0.1913834890
 H   -0.4433367730    1.8811532977   -1.3009039181
 H   -0.7197108758    2.0394386967    0.4400990260
 H    0.1944960363   -0.2479316653    0.8335916228
 H   -1.1354998939   -0.3303551206   -0.3319290529
 H    0.4658420278   -0.3994293189   -2.2057393556
 H    2.6546672395   -0.9262881748   -0.6900526846
 H   -0.3911586313   -4.0055087444   -1.2000685798