20

 O   -0.0654711912    1.3792797887    0.4895641309
 C    0.0245742404    0.0077862564    0.1150050859
 C   -1.3648057574   -0.5187056017   -0.1010691424
 C   -2.1537856558   -1.0281424239    1.0828302794
 C   -1.6903302948   -1.9952005677    0.0195320043
 C   -2.6754891916   -2.3606467459   -1.0825885632
 C   -3.2815503393   -1.0099619055   -1.5310473671
 C   -2.1757933453    0.0377770653   -1.2677125468
 H    0.8264837961    1.7373153389    0.5260537482
 H    0.6107032521   -0.1032553275   -0.8129182677
 H    0.5298588970   -0.5838233461    0.8958587610
 H   -1.6361923264   -1.0564372690    2.0359473130
 H   -3.2089885242   -0.7885368948    1.1651836810
 H   -0.9209132715   -2.7132993512    0.2853107695
 H   -2.1309019626   -2.8313915872   -1.9104063966
 H   -3.4424656053   -3.0722200174   -0.7574396096
 H   -3.6043613463   -1.0235140717   -2.5754399786
 H   -4.1699675651   -0.7790003756   -0.9350328221
 H   -2.5784803937    1.0352715955   -1.0690130811
 H   -1.5163777151    0.1271297703   -2.1413026079