16

 O    0.9098932502    1.0996838578    1.2794407797
 C    0.5673709567    1.7478995416    0.3257125826
 C    1.0982878353    1.5426333556   -1.0897618505
 N    1.1907685780    2.7994415019   -1.7967192285
 C    2.2818831663    3.6163872764   -1.5123599289
 C    3.1238486968    3.5938041651   -0.4222896066
 N    3.9908851714    4.6563799563   -0.6356469295
 C    3.6455245836    5.2355473929   -1.8101488160
 N    2.6162697576    4.6345686121   -2.3693747574
 H   -0.1906286992    2.5602715721    0.3975963280
 H    2.0465816685    0.9855600010   -1.0290312876
 H    0.3663072628    0.9065829193   -1.6035658231
 H    1.0021437665    2.7594234354   -2.7873679735
 H    3.1877446817    2.9650242296    0.4479453921
 H    4.7417265862    4.9349700310   -0.0277595315
 H    4.1721453977    6.0864556719   -2.2150974393