18

 O    0.0501340849    0.0465205446   -0.5327146346
 C   -0.0166692350    1.1547518756   -0.0623921872
 C   -1.3295314231    1.7419855317    0.4781126405
 C   -1.3143144241    3.2426829563    0.8581798888
 C   -0.0575429119    3.6000419963    1.6305239121
 C    1.0733106932    3.0679189887    1.1963675109
 C    2.5067745068    2.7772773134    1.5826452198
 N    2.4345384379    1.5597015675    0.7089285926
 C    1.1929889460    2.0775857897    0.0702342993
 H   -2.1218841367    1.5135231774   -0.2413462700
 H   -1.5544114093    1.1517033344    1.3758516970
 H   -1.3934507103    3.8589562166   -0.0479292421
 H   -2.2068968793    3.4677691111    1.4495670984
 H   -0.1219054783    4.2250341977    2.5158055397
 H    3.2173394146    3.5406589166    1.2327195758
 H    2.7144564322    2.5634149406    2.6367431249
 H    3.2174559014    1.4467725501    0.0749203964
 H    1.3523663211    2.5523945016   -0.9139830425