18

 O    0.4191128490    1.0134760775    0.5836540611
 C    0.0586769171   -0.0685297829   -0.2554443885
 C   -1.3920441094   -0.4945340026   -0.0800038203
 C   -1.6953338969   -1.8872593072    0.3373040558
 N   -1.8642944451   -0.7686293837    1.2817709841
 C   -2.4445886677    0.2611888180   -0.9135979058
 O   -3.7492595005   -0.0661638773   -0.4909999776
 C   -2.2125178193    1.7193322038   -0.8695461589
 C   -2.0307885648    2.9089471168   -0.8345047193
 H   -0.1382694374    1.7622320638    0.3348621759
 H    0.2483356043    0.1578568933   -1.3166868357
 H    0.7217757951   -0.8938458798    0.0228876480
 H   -2.6248616155   -2.3523943491    0.0255838185
 H   -0.8583729920   -2.5659460466    0.4769152727
 H   -1.0930551297   -0.6910713658    1.9393983676
 H   -2.3606459807   -0.0636383198   -1.9589293230
 H   -3.6909295704   -0.1053053118    0.4786289548
 H   -1.8999244762    3.9635927333   -0.8200018795