18

 C    0.1019890325    0.7497155917   -0.4058620822
 O   -0.4685617574   -0.2136764462    0.4683378558
 C    0.4242253694   -0.7025855703    1.4043216380
 C    0.3154039650   -2.1156330553    1.8648080418
 C    1.5368916201   -1.6938325283    1.0399833048
 C    0.9754818124   -2.6207770441   -0.0355676298
 O    1.2585688025   -2.9076561890   -1.1664818985
 N   -0.0881494036   -3.0089900402    0.7799502241
 C   -1.4413854499   -3.2939557448    0.3429666344
 H    0.9254964250    0.3168197993   -0.9875288193
 H   -0.6915699484    1.0704635745   -1.0831408925
 H    0.4747903260    1.6223003606    0.1496452016
 H    0.7278853720    0.0211158024    2.1667685355
 H    0.2676922625   -2.4340952302    2.8986782675
 H    2.5681227076   -1.5676988935    1.3375957494
 H   -1.3772970202   -3.7554687742   -0.6454116583
 H   -1.9270855573   -3.9978957564    1.0255741037
 H   -2.0432610382   -2.3803908959    0.2733480241