19

 C   -0.0026329813    1.4555396478   -0.0624471491
 N   -0.0977083507    0.0141624753    0.0562341875
 C    0.5802608572   -0.6773114149    1.0496218635
 C    1.1235820520   -0.0471686600    2.1825866304
 N    1.7386137691   -0.6923429152    3.1718668373
 C    1.8676208134   -2.0220143266    3.1053513559
 C    2.5717323354   -2.6990804698    4.2535811066
 C    1.3686773607   -2.7385822297    2.0130608705
 C    0.7249582674   -2.0698453162    0.9855207208
 H    1.0335362858    1.8225723705   -0.1299492372
 H   -0.5401592961    1.7696517011   -0.9597692367
 H   -0.4774038627    1.9460947471    0.7943266592
 H   -0.1488699651   -0.4755666855   -0.8232455941
 H    1.0543204414    1.0313547165    2.2925863126
 H    2.0330589652   -2.5311960456    5.1923489651
 H    2.6559899868   -3.7773992821    4.0941564956
 H    3.5781546633   -2.2888608440    4.3865243715
 H    1.4856229273   -3.8165696022    1.9701149302
 H    0.3293427609   -2.6162842366    0.1332822902