15

 N    0.0294948650    1.3486783071    0.1699698299
 C   -0.0771281705   -0.0255725107    0.0062808707
 N   -1.2053974422   -0.6139464080   -0.0356281672
 C   -1.1649339387   -2.0717640925   -0.0132888301
 C    0.0144767594   -2.6513065567   -0.8094559239
 C    1.3211263439   -2.0057713277   -0.3907234078
 O    2.4046441580   -2.5438639042   -0.3746210466
 N    1.1663309293   -0.6731620412   -0.0376213403
 H    0.7171534264    1.7993957048   -0.4194716950
 H   -0.8773637371    1.7920910341    0.1111496715
 H   -1.1129200218   -2.4207818476    1.0299296947
 H   -2.1072511647   -2.4517116522   -0.4182309642
 H    0.1129746449   -3.7324687346   -0.6931593402
 H   -0.1259630040   -2.4433677895   -1.8786821083
 H    2.0011193520   -0.1856732812    0.2558709568