16

 N   -0.4414294894    1.1426752110   -0.4541368780
 C   -0.5182548275   -0.0286557534   -0.0013195947
 O   -1.1323776740   -0.9897980123   -0.7401126511
 C   -1.0487290164   -2.2987060795   -0.2566751467
 C   -1.8500099079   -2.7089145055    0.9569316004
 C   -2.2892577301   -3.1400215829   -0.4133688892
 O   -3.4686179406   -2.5391775096   -0.8796300333
 C   -3.4799003960   -2.1339207131   -2.1790801411
 O   -4.4537688921   -1.6667780757   -2.6803371230
 H    0.0284143939    1.7479522309    0.2158765423
 H   -0.1441111905   -0.3992823797    0.9608946967
 H   -0.0892015967   -2.7784894658   -0.4358942180
 H   -1.4366863695   -3.4441001734    1.6371785639
 H   -2.4667421071   -1.9415352562    1.4111062288
 H   -2.1733522144   -4.1790337851   -0.7080232216
 H   -2.5127589717   -2.2929683497   -2.6860931152