17

 N   -0.3166282440   -1.1272698455    0.3514937707
 C   -0.1864413706    0.0146994686    0.2268897045
 C   -0.0246094012    1.4354185911    0.0293481291
 N    0.5911607532    2.1936396042    1.1373961564
 C    1.3315898918    2.0610678577   -0.1176744919
 C    2.6025128494    1.2607978804   -0.0810155385
 C    3.2409803058    0.9362708241   -1.4527815025
 O    4.3845070400    1.7672161809   -1.1712679749
 C    3.9009506147    2.0710321224    0.1517923561
 H   -0.8413770328    1.8936425125   -0.5216733548
 H    0.1444529140    3.1035846048    1.2140414459
 H    1.3559554621    2.9262396906   -0.7808915614
 H    2.4808546751    0.4031686254    0.5813732667
 H    3.5177351873   -0.1140046648   -1.6011314280
 H    2.6848300741    1.2838393830   -2.3333176879
 H    3.7701365614    3.1499167369    0.3070224592
 H    4.5609457896    1.6784105677    0.9343580512