19

 C   -0.0230940600    1.3101707205   -0.5796310261
 C   -0.0425264022   -0.0630232702   -0.0963253498
 C   -0.0630679234   -1.1975763186    0.3026560578
 C   -0.0806602770   -2.5798612400    0.7895889154
 C   -1.3603761057   -3.2646723257    0.5904799629
 C   -2.4114410939   -3.8306168306    0.4291608868
 C   -3.6643977337   -4.5030450361    0.2412917925
 C   -4.4970676342   -4.2362558039   -1.0031626754
 C   -3.8135525468   -5.5612904558   -0.8410135798
 H    0.7237211598    1.4451215958   -1.3698889185
 H   -0.9965006306    1.5983279825   -0.9917370374
 H    0.2161956051    2.0135191715    0.2256484841
 H    0.7199361929   -3.1501348049    0.2969313656
 H    0.1720180097   -2.5928464493    1.8595018757
 H   -4.2285245980   -4.6822130013    1.1522120142
 H   -5.5729846130   -4.1875270828   -0.8788428937
 H   -4.0909527260   -3.5374705853   -1.7244767552
 H   -2.9429797175   -5.7641470719   -1.4530836737
 H   -4.4155402256   -6.4314824340   -0.6046240554