22

 C    0.0230540928    1.5886694311    0.1205223825
 C   -0.0337825379    0.0665336071   -0.0477168887
 C   -1.4540810910   -0.5243436778   -0.0250924753
 C   -2.3560124562    0.0183864205   -1.1344830180
 C   -1.4937301717   -2.0659610132    0.1585830628
 O   -2.1056443382   -1.9144574127    1.4741506778
 C   -2.1021548783   -0.5331348416    1.3535395570
 N   -2.5076857001    0.3513825137    2.1402607929
 C   -3.0922834687   -0.0416298264    3.4157882692
 H    1.0611923045    1.9251569061    0.2001713688
 H   -0.4257773636    2.1081905449   -0.7314449296
 H   -0.5115930296    1.8960619712    1.0234346622
 H    0.4447571246   -0.2267632333   -0.9919924384
 H    0.5494365045   -0.4053994100    0.7527468039
 H   -1.8955841023   -0.1329341014   -2.1173050991
 H   -3.3286869006   -0.4829630781   -1.1322027327
 H   -2.5361216541    1.0876059079   -1.0005089976
 H   -2.1539809441   -2.6151779729   -0.5183785200
 H   -0.5248359995   -2.5673417202    0.2343757758
 H   -4.0966430914    0.3883803056    3.4965346722
 H   -3.1608011892   -1.1258035677    3.5622539382
 H   -2.4967639398    0.3847871975    4.2308246762