18

 O   -0.0381830916    1.4402984377   -0.0725263681
 C    0.0169625514    0.0261975645    0.0150960760
 C    0.6485990212   -0.5239354366    1.3285594078
 C   -0.2351382759   -1.7151469801    1.6822587915
 C   -1.7135844959   -1.4744134514    1.9469995718
 C   -2.1632592813   -0.1484198105    1.3299692358
 C   -1.4015345686   -0.5494251343    0.0244611969
 C   -1.2437764304   -1.9841392138    0.5938353010
 H    0.8621124160    1.7779914525   -0.0482791385
 H    0.5603253196   -0.3889075177   -0.8496610472
 H    1.6906392389   -0.8272302598    1.1837790633
 H    0.6360005008    0.2558798678    2.0985658046
 H    0.1941886945   -2.5630988761    2.2045679362
 H   -2.2281916575   -2.0204477101    2.7296967658
 H   -3.2436510942   -0.1335350923    1.1673310991
 H   -1.8623195667    0.7868843195    1.8113763019
 H   -1.9401465442   -0.4087134317   -0.9118732669
 H   -1.4089806062   -2.9298004577    0.0953726791