16

 C   -0.4360217387    1.3561512905    0.0320043521
 N    0.0118686656   -0.0286653553   -0.0021314137
 C    0.2203532786   -0.6891179696   -1.1892613268
 C    0.6363432291   -1.9750474106   -1.2018256156
 N    0.8662337918   -2.6697385308   -0.0326666849
 C    0.6699521795   -2.0480061228    1.0768396936
 O    0.8782352398   -2.6757812796    2.2511363573
 C    0.2193831187   -0.6533815273    1.2256062356
 N    0.0157259534   -0.0088545401    2.3175117956
 H    0.2922128345    1.9724311890    0.5662877379
 H   -0.5572798841    1.7163648187   -0.9900433506
 H   -1.3827416302    1.4304786662    0.5740133702
 H    0.0321001673   -0.1194424507   -2.0893036112
 H    0.8036139378   -2.5046327287   -2.1298180045
 H    1.1673502494   -3.5723872976    2.0300049141
 H    0.2152811774   -0.6147803814    3.1097718710