23

 C   -0.1930167376    1.5528933650   -0.0203289111
 C    0.0325313056    0.0479698220    0.0100667705
 C    1.2287760223   -0.6266197470   -0.7424212930
 C    2.1750518612   -0.1078658354    0.3815969521
 C    0.9050545051   -0.6386192252    1.1285091368
 C    0.6474797805   -0.6643044863    2.6110616095
 C    0.9835500650   -1.8448305515    0.1632870021
 C    0.1469238430   -3.0655139916    0.0115470104
 C    1.6530180135   -3.1683965062    0.2710672872
 H    0.7188752813    2.1369557662    0.1265742844
 H   -0.6248941994    1.8538209198   -0.9815251805
 H   -0.9040153419    1.8490116146    0.7596402685
 H   -0.9188589840   -0.4707049438   -0.1555639791
 H    1.4170556725   -0.6314318524   -1.8174595623
 H    3.0935730627   -0.6789754747    0.5386685918
 H    2.3706331405    0.9648519041    0.4224108054
 H    0.6337690619    0.3486966443    3.0278287402
 H   -0.3187548574   -1.1305650230    2.8354252299
 H    1.4246879519   -1.2296810660    3.1377146973
 H   -0.5204144254   -3.3518812981    0.8193484109
 H   -0.2141131777   -3.3382293718   -0.9756576316
 H    2.2830286049   -3.5090063265   -0.5452358961
 H    1.9690395716   -3.5220094765    1.2484032368