17

 C    0.0799197200    1.5116181550   -0.0508170274
 C    0.0499194353    0.0286953371    0.0610543047
 O    0.5482765506   -0.7717616128   -1.0549106945
 C    1.1999572493   -1.6416705054   -0.1801903656
 N    1.9976680776   -2.5828927338   -0.4017340135
 C    0.6451907709   -0.9905847161    1.0375041958
 N    1.1428582930   -0.8462607960    2.3570136599
 C   -0.8893976602   -0.8303960582    0.8380775170
 O   -1.5175532718   -0.2569746615    1.9296371455
 H    1.0991092839    1.8938113235   -0.1616314067
 H   -0.5039488915    1.8327403687   -0.9200384822
 H   -0.3750318545    1.9466966571    0.8423850314
 H    2.1553596983   -2.7127059821   -1.4021538167
 H    1.2844763913   -1.7550308880    2.7889932869
 H    2.0289968445   -0.3527068717    2.3826036883
 H   -1.4670157651   -1.6032870971    0.3346418648
 H   -0.8492510815   -0.2275507285    2.6367199223