21

 C    0.0901231980    1.5470828031   -0.0024330111
 C    0.0299281792    0.0242309159    0.0884755507
 O    0.5966296032   -0.4529522420    1.3177316127
 C   -1.3778260356   -0.5396757811   -0.0615995427
 C   -2.1325111656   -0.5655694536   -1.4380807042
 C   -2.3337712980   -2.0812098461   -1.2773248356
 C   -0.9754578815   -2.7448172565   -1.2161267228
 C   -1.5246385728   -2.0616114404    0.0085767457
 O   -1.7653016580   -2.7440207686    1.1872443152
 H    1.1154003380    1.9007358830    0.1376486334
 H   -0.2688491778    1.8975118260   -0.9756587385
 H   -0.5411292038    2.0075845749    0.7684589267
 H    0.6763750248   -0.4058783415   -0.6857052616
 H    0.1194456817   -0.0240474669    2.0375296927
 H   -2.0267346917   -0.0867226155    0.6991994159
 H   -3.0554121969    0.0170869501   -1.4254615919
 H   -1.5429377696   -0.2696309129   -2.3132462377
 H   -3.2328084971   -2.6314867528   -1.5241052512
 H   -1.0037487542   -3.8271395420   -1.1429365291
 H   -0.1382861967   -2.3507250323   -1.7890610684
 H   -0.9222389257   -2.7829931909    1.6553919918