18

 C    0.0677279496    1.2738331593   -0.2095745477
 N    0.0914153165   -0.1666647289    0.0375392455
 C    0.7012935505   -0.5398760512    1.3282292006
 C    0.2575505473   -1.9238645734    1.7181720068
 C    0.9077799354   -2.9734870922    1.2306338577
 C    2.1221477805   -2.7799266253    0.3739421916
 O    2.8384742833   -1.5685015412    0.6438824494
 C    2.2195490899   -0.4723715875    1.1336261922
 O    2.8626474126    0.5161819181    1.3669684494
 H    1.0915706109    1.6544489809   -0.2435288561
 H   -0.4020552366    1.4626618025   -1.1788767527
 H   -0.4744405136    1.8475212668    0.5617273950
 H   -0.8498257520   -0.5427904096    0.0038694329
 H    0.4657808183    0.1874542263    2.1205439764
 H   -0.6161404130   -2.0278443287    2.3539892692
 H    0.5959506803   -3.9944933652    1.4274531229
 H    2.8489506275   -3.5816509397    0.5369387464
 H    1.8502503326   -2.7925009511   -0.6904194296