21

 C    0.6937274505   -0.0479666924   -1.2464864184
 C    0.0055918425    0.1049447515    0.1167520174
 C    0.0507026511    1.5604662169    0.6099798133
 C   -1.4291690907   -0.3958200763    0.0600985017
 O   -2.2974878602    0.3490736113   -0.7625505550
 C   -1.8359241230   -1.8544538904   -0.0143101372
 C   -0.9894492981   -2.6996370413    0.9271673077
 O   -1.2498134185   -1.7977917982    2.0412741659
 C   -2.1400351976   -1.0314784520    1.2261667588
 H    1.7216292121    0.3273392087   -1.2128932724
 H    0.7262877826   -1.0966485248   -1.5587848479
 H    0.1503994314    0.5113662629   -2.0146468091
 H    0.5312408523   -0.5071363510    0.8570207604
 H   -0.4277806054    2.2380865926   -0.1069173423
 H   -0.4499627357    1.6697572780    1.5781241056
 H    1.0846823230    1.8974769067    0.7296276465
 H   -2.4545361977    1.1972291451   -0.3334134723
 H   -2.4924171880   -2.2120087492   -0.7953265890
 H   -1.4220488554   -3.6857814640    1.1294468606
 H    0.0809143841   -2.8039556799    0.7154541582
 H   -3.0666553793   -0.6733293742    1.6623862875