25

 C    0.1546023361    1.6054569117   -0.4303330853
 O   -0.2868377469    0.2734213485   -0.5422723468
 C    0.6675496490   -0.6086122776   -1.0960609069
 C    1.8599650068   -0.9502703426   -0.1704561319
 C    2.2635564278   -2.4037758780   -0.5435705772
 C    1.2614870529   -2.8503199655   -1.6378073800
 C    0.0109339152   -1.9660788874   -1.4428354897
 C   -0.8443895353   -2.4774141016   -0.2683674902
 C   -0.8536064436   -1.8632737648   -2.7031382360
 H    0.9958802466    1.7095764745    0.2706683749
 H    0.4681352693    2.0128960230   -1.4050438026
 H   -0.6856117161    2.1964372612   -0.0566470993
 H    1.0542374011   -0.1694791734   -2.0332127338
 H    2.6878172443   -0.2461919354   -0.2887244586
 H    1.5273716322   -0.8823234783    0.8701468228
 H    3.2956372421   -2.4668986330   -0.8983041528
 H    2.1983075718   -3.0552115101    0.3323808455
 H    1.6849906679   -2.6649980403   -2.6325020418
 H    1.0265991436   -3.9179736519   -1.5871875796
 H   -0.2595771183   -2.5936766243    0.6491252812
 H   -1.6610068445   -1.7844975602   -0.0532901783
 H   -1.2740150647   -3.4545332685   -0.5140431440
 H   -1.3048315502   -2.8287566041   -2.9571703115
 H   -1.6632571132   -1.1414410221   -2.5551413154
 H   -0.2611640540   -1.5344755696   -3.5646619926