18

 O    0.0712996027    1.3583931108   -0.1546338283
 C    0.0358917952   -0.0297004639    0.0706613264
 C    0.5449089307   -0.5059518198    1.4456407087
 C    0.0093338324   -1.9422781860    1.5416621238
 C   -1.4095558941   -1.8642843164    0.9284008096
 N   -2.4220743180   -1.5112266997    1.9451708853
 C   -2.8308742543   -0.3513655972    1.6514451760
 O   -2.3421023974    0.2840596546    0.5531257966
 C   -1.3798824583   -0.6396059545   -0.0343470154
 H   -0.6945702358    1.7288352000    0.3013148498
 H    0.6557570729   -0.4834283886   -0.7131202793
 H    1.6314083490   -0.4351773074    1.5311914052
 H    0.1104513840    0.1225329698    2.2324506565
 H    0.6298420499   -2.6200693884    0.9438796226
 H   -0.0252480332   -2.3335434644    2.5603474150
 H   -1.7017689760   -2.8024811931    0.4507354052
 H   -3.5714274951    0.2182970749    2.2022471281
 H   -1.6993080747   -0.8212442206   -1.0616249157