21

 C   -0.0305739583    1.4810151201   -0.2155708726
 C    0.1303291653   -0.0117554058   -0.0169158595
 C    1.4963964677   -0.6525085991    0.0375017949
 C    0.6238546313   -0.6290256876    1.2724593973
 C    0.9944374045    0.1918932300    2.4874180095
 N    1.7618982960   -0.6126566879    3.4363248366
 C    3.2108067857   -0.6068003687    3.2756233600
 C    2.5669939747    0.1201550291    4.4050432147
 H    0.7783442209    2.0479433546    0.2540550844
 H   -0.0256333559    1.7305089306   -1.2825052855
 H   -0.9763210750    1.8429339788    0.2037962220
 H   -0.6328686494   -0.5962002683   -0.5252926494
 H    1.6619704158   -1.5954144928   -0.4722116464
 H    2.3536623974    0.0146496417    0.0204847352
 H    0.1640251268   -1.5757101807    1.5424497140
 H    1.5440192964    1.1022436294    2.1881799936
 H    0.0862576480    0.5245322397    3.0068441589
 H    3.7121861905   -1.5562784365    3.4403963802
 H    3.6352510167   -0.0021724466    2.4756885476
 H    2.5632437276    1.2085439252    4.3551824371
 H    2.5866831332   -0.2877053751    5.4118611574