15

 N    0.1432463126   -1.0891694171   -0.0045937641
 C    0.0448770940    0.0638822239   -0.0201241645
 C   -0.0686757202    1.4909987335   -0.0316152788
 C   -1.2149589420    2.1938145846    0.6192180310
 C   -1.2998272396    3.4382537167    0.1423265470
 C   -0.1111047702    3.6814117261   -0.7577787791
 N    1.0913049251    3.6860762142    0.2074167283
 C    1.3000980340    2.2831576371   -0.1537833865
 C    0.3255765908    2.2715217420   -1.2789120830
 H   -1.8101998674    1.7429248659    1.4015533124
 H   -1.9683047893    4.2162527713    0.4851303290
 H   -0.1440450744    4.5264220570   -1.4419118463
 H    1.8367009266    4.2154796127   -0.2423414932
 H    2.2308301733    1.7590760765    0.0239731314
 H    0.3307043964    1.8590403356   -2.2802938134