13

 C    0.0125421115    1.4462868773   -0.0259475390
 C   -0.0573815287   -0.0375344425    0.0235243735
 N   -1.1040162565   -0.7930565805   -0.1255800095
 C   -0.6283822783   -2.0902502368    0.0102124520
 N   -1.5172425229   -3.1588484989   -0.0324343122
 C    0.7107218403   -2.0488318000    0.2370246997
 O    1.0834925206   -0.7176931762    0.2465582070
 H    0.6901414341    1.7830839922   -0.8173896180
 H   -0.9846107995    1.8428302639   -0.2176889240
 H    0.3834695792    1.8543970377    0.9199959421
 H   -2.3530396836   -2.9214444221   -0.5498125448
 H   -1.1129568505   -4.0200836210   -0.3722818712
 H    1.4876145242   -2.7722599732    0.4043648544