18

 C    0.0015097838    1.4791230001   -0.0812518157
 C   -0.0214678518    0.0268617497   -0.0031095322
 C   -0.0401465963   -1.1776195964    0.0615652163
 C   -0.0300027877   -2.5925447727    0.1720004246
 N   -0.2256634692   -3.4907079151   -1.0124590952
 C   -1.1396700428   -3.6037617950    0.1439063676
 C   -0.4326090878   -4.5022918460    1.1536216066
 C    0.7761894520   -3.4861845792    1.1502140255
 O    2.0176021891   -3.9302184933    0.6965106392
 H    0.7824759550    1.8936612697    0.5657589305
 H    0.2037313956    1.8204728776   -1.1026538811
 H   -0.9542556996    1.9137707669    0.2324741991
 H   -0.6861729536   -2.9312708675   -1.7290190482
 H   -2.2014250585   -3.4249435638    0.0288616762
 H   -0.9332439028   -4.5477973208    2.1232064757
 H   -0.1979873533   -5.5115444259    0.8067601867
 H    0.9279349598   -3.0140870833    2.1224192537
 H    1.8760181181   -4.1953271249   -0.2230456795