19

 C   -0.0803937682    1.4897549583    0.0039962288
 C   -0.0707009586   -0.0009839671   -0.0509483804
 C   -0.0814547576   -0.8227934642   -1.1078930426
 C    0.0335518786   -2.2632737965   -0.5892586511
 C    1.3897509054   -2.4188702105    0.1042481898
 C    1.3929487553   -1.6064601463    1.1649314432
 C    0.0393289781   -0.8938424811    1.2015499935
 C   -0.8441459118   -2.1067972269    0.7127286177
 O   -2.2072299433   -1.8805303559    0.5385037496
 H    0.8467215654    1.8703199347    0.4527919494
 H   -0.1789433895    1.9310952444   -0.9918572982
 H   -0.9018333887    1.8636712201    0.6280688578
 H   -0.0952679064   -0.5453985385   -2.1542438439
 H   -0.2500071934   -3.0515625540   -1.2861947673
 H    2.1774915758   -3.0789530470   -0.2332506143
 H    2.1822332608   -1.4562116146    1.8891497977
 H   -0.2380655260   -0.4230501611    2.1454253767
 H   -0.7550023701   -2.9686717021    1.3772400783
 H   -2.2880018559   -1.1419639117   -0.0807658445