22

 C    0.1289129470    1.5146201400   -0.0118645088
 C   -0.0698705356   -0.0111719440    0.0019800983
 C   -1.5822379131   -0.3257570459    0.0604926267
 C    0.5569768704   -0.6145049134   -1.2821365631
 C    0.7474161578   -2.1252355263   -1.2135108506
 N    2.1251511677   -2.5871633345   -0.9283390625
 C    1.0654550216   -2.7294151772    0.1035218686
 C    1.1263394412   -1.8237794037    1.2784014198
 C    0.6034505988   -0.5987817252    1.2314717835
 H    1.1923460423    1.7749432000   -0.0029668324
 H   -0.3193179030    1.9574595422   -0.9083127454
 H   -0.3402557663    1.9819079932    0.8612622841
 H   -2.1101364401    0.1496413966   -0.7745984245
 H   -1.7609698171   -1.4040466447    0.0118317779
 H   -2.0259063822    0.0428782074    0.9915438460
 H   -0.0635927413   -0.3487373333   -2.1459404271
 H    1.5404427187   -0.1608396575   -1.4398710118
 H    0.1621550553   -2.7229535916   -1.9076251981
 H    2.2782287600   -3.4913361569   -1.3707751917
 H    0.7127179500   -3.7396866143    0.3034746699
 H    1.5962248145   -2.1936391835    2.1861854762
 H    0.6314423933    0.0357249828    2.1154770751