17

 N   -0.1095642400    1.3346586244   -0.2015820214
 C   -0.0235772592   -0.0469085781   -0.0876955770
 O    0.9306313087   -0.6857989087   -0.4915149341
 N   -1.1141396063   -0.6202077642    0.5590420467
 C   -2.5562385115   -0.3630685845    0.1275038324
 C   -2.3453180870   -1.4702937516   -0.9566481329
 C   -1.4839302900   -2.0480468338    0.2183023921
 C   -2.5704993376   -2.2865460076    1.2759637855
 C   -3.2859720968   -1.1606215142    1.2174061284
 H    0.7792185523    1.7638090145   -0.4123254511
 H   -0.6459417548    1.8179174513    0.5032349699
 H   -2.8531519278    0.6583511203   -0.1015738420
 H   -3.2193657085   -2.0383570592   -1.2825348721
 H   -1.7368649863   -1.1377386352   -1.8017605774
 H   -0.6671104351   -2.7488551993    0.0759086095
 H   -2.6801717749   -3.1605030929    1.9003517792
 H   -4.1516526853   -0.8418079214    1.7786402742