23

 C   -0.0121624341    1.4811812379    0.0784684910
 C    0.0367640379   -0.0265977122   -0.0267657981
 C    1.0567501626   -0.6475090788   -0.9883664894
 C    0.2931155564   -1.7859106540   -1.7079440937
 C   -0.8666928266   -2.1784415199   -0.7614456933
 C   -0.4151073715   -3.1260322984    0.3763370499
 C    0.2434641676   -2.2165167755    1.4444841165
 C   -0.3619248403   -0.8356895091    1.2015195215
 C   -1.2248099967   -0.8615712092   -0.0420899558
 H    0.9238289143    1.8841472990    0.4839565479
 H   -0.1723433019    1.9431355042   -0.9032401998
 H   -0.8237761917    1.8088794019    0.7364277501
 H    1.4164119885    0.1038870840   -1.6985866794
 H    1.9427533275   -1.0208134091   -0.4612078841
 H   -0.1270805841   -1.3999073185   -2.6434760436
 H    0.9322346533   -2.6361178374   -1.9692859432
 H   -1.7051391180   -2.6032011738   -1.3193343424
 H   -1.2987198074   -3.6074675179    0.8101426202
 H    0.2462502149   -3.9243259530    0.0229799776
 H    0.0222170558   -2.5634413974    2.4582474934
 H    1.3360348938   -2.2093735093    1.3529048049
 H   -0.6754620169   -0.2551254535    2.0638051165
 H   -2.2186150334   -0.4307604100   -0.0872147467