20

 C    0.0174373956    1.4664244305   -0.0142505744
 C   -0.0349617848   -0.0292012006   -0.1020263634
 C    0.5360468987   -0.9560539832   -1.1831523158
 C    0.0281796987   -1.8975147521   -0.0845309218
 C    0.1733196605   -3.3859282937    0.0287079083
 N    0.5423486056   -0.9403740516    1.0262012233
 C   -0.8210486831   -0.9664246783    1.7113336771
 C   -1.2127468107   -0.9836369481    0.2377907811
 O   -2.4534409411   -0.9287222937   -0.3786260484
 H    1.0534369720    1.8172468982   -0.0566962787
 H   -0.5315273729    1.9136716218   -0.8494816426
 H   -0.4285336451    1.8322197806    0.9160618688
 H    0.0038298597   -0.9810588584   -2.1371203787
 H    1.6209721415   -0.9206935861   -1.3231271872
 H    1.2288880634   -3.6741175257   -0.0091732523
 H   -0.2448767900   -3.7638750002    0.9678044249
 H   -0.3436684692   -3.8850735242   -0.7982907512
 H   -0.9906510995   -1.8648346188    2.3136608604
 H   -1.0363249599   -0.0688441125    2.2986393000
 H   -2.9676796894   -1.6980876739   -0.1093930292