19

 C    0.0465190192    1.5282489709    0.1031834085
 C   -0.0116881875    0.0344646064   -0.0242284985
 C   -1.1321505258   -0.6839637289    0.0540374199
 C   -1.0902768399   -2.1693191372    0.0037338554
 O   -1.6786916022   -2.8313276217    1.0962931563
 C   -1.0596495794   -2.9120766506   -1.3228714372
 C    0.1903376349   -2.7651485118   -0.4824961094
 O    1.1790743869   -1.9018181351   -0.9624417929
 C    1.3056840421   -0.6851002044   -0.2415882372
 H    0.7280534263    1.8281660307    0.9100271519
 H    0.4282858579    1.9930207374   -0.8150145028
 H   -0.9382470567    1.9507592854    0.3190810797
 H   -2.0993017392   -0.2061998474    0.1994476460
 H   -2.6336234172   -2.8184949208    0.9667804201
 H   -1.5310898979   -3.8888476385   -1.3515879314
 H   -1.1023129388   -2.3297736517   -2.2360727495
 H    0.5650046416   -3.6428040256    0.0402377816
 H    1.9832637219   -0.0637690606   -0.8372420381
 H    1.7978145037   -0.8537774666    0.7327007176