19

 C   -0.1248460764   -1.2093713312   -0.0900741139
 C   -0.0509284303   -0.0101116735   -0.0466657348
 C    0.0363197259    1.4376758946    0.0317793262
 C   -0.5026948119    2.0411148200    1.3510028733
 O    0.0542014341    3.3407561713    1.3862655972
 C    1.3904548794    3.2257183300    0.9360422962
 C    2.1282284845    4.5081542437    0.7477608247
 C    2.4864878248    3.5849176711    1.9032930151
 C    1.4816034186    2.0145105133    0.0014581422
 H   -0.1929564572   -2.2679933254   -0.1353854804
 H   -0.5360987066    1.8811546913   -0.7908677086
 H   -1.5905257943    2.1315429534    1.3753389451
 H   -0.1731632141    1.4326408407    2.2070568854
 H    2.8175223582    4.5891743891   -0.0862788581
 H    1.5930220173    5.4203434597    0.9872571381
 H    2.1835284340    3.8964865092    2.8965672094
 H    3.4223405548    3.0368224507    1.8571545237
 H    2.1932980374    1.2748352272    0.3758943066
 H    1.7805648115    2.2865336548   -1.0135629171