13

 O   -0.0309203587    1.3383864177    0.0095003082
 C    1.2207536968    1.8394539062    0.0003086417
 C    2.1203866424    0.8026539327   -0.0139338019
 C    3.5309579999    0.6342392328   -0.0283689039
 N    4.0653104417   -0.5563490389   -0.0398294652
 C    3.2093019698   -1.6430679599   -0.0374459480
 N    1.9061007289   -1.6542539459   -0.0250476163
 C    1.3345573612   -0.4129380802   -0.0129261072
 C    0.0203399481   -0.0181908343    0.0016901530
 H    1.3025696368    2.9133430122    0.0053427977
 H    4.2054030891    1.4900020163   -0.0301777588
 H    3.7126706177   -2.6064791317   -0.0474440064
 H   -0.9227919336   -0.5354735071    0.0078782472