19

 C   -0.5204303903    1.2822469169    0.0654728793
 C    0.1689991981   -0.0732489402   -0.1733562834
 C    1.2121655528   -0.0085621518   -1.3188740508
 N    0.6264849456    0.3830992144   -2.5923633468
 C    0.0072218707   -0.5632030392   -3.3789568413
 N   -0.3247547858   -0.1175846654   -4.6537096346
 O   -0.2083413018   -1.6998529424   -2.9996813067
 C    0.8123253385   -0.5636471201    1.0424897499
 C    1.3699145126   -0.9453218433    2.0371200224
 H    0.2032988184    2.0327376660    0.4003822960
 H   -0.9855299879    1.6330650116   -0.8595447558
 H   -1.2933901914    1.1946616307    0.8328708763
 H   -0.5847539475   -0.8047051986   -0.4885884156
 H    1.9867143063    0.7204101681   -1.0633829838
 H    1.6827780131   -0.9907442773   -1.4170973021
 H    1.0018408811    1.1999774951   -3.0444997376
 H   -0.5509066839    0.8595649864   -4.7652760620
 H   -0.9679461804   -0.7394138981   -5.1200742509
 H    1.8468136716   -1.2980062827    2.9177122974