19

 C    0.0019996162    1.5353799318   -0.0592301731
 C    0.0093801931    0.0069744961    0.0798330281
 C    0.7503541089   -0.4308930307    1.3515720221
 C   -1.4221622970   -0.5444756207    0.0056314418
 C   -1.5519646752   -2.0817455066    0.0517306427
 O   -2.0681240663   -2.3505467623    1.3556087301
 C   -2.4878980879   -1.1980049437    1.9378304088
 O   -3.0372702660   -1.1322278890    2.9901431193
 O   -2.1906816244   -0.1339799332    1.1505129490
 H    1.0217638801    1.9310829425   -0.0463804322
 H   -0.4693134127    1.8503214399   -0.9963023966
 H   -0.5502366990    1.9939109230    0.7666428523
 H    0.5283996325   -0.4172960040   -0.7924930144
 H    0.7773677348   -1.5186787700    1.4697722086
 H    1.7850773976   -0.0777071587    1.3249143145
 H    0.2773352707   -0.0070039805    2.2424511269
 H   -1.9214721782   -0.1348289907   -0.8775829926
 H   -2.2549655755   -2.4646129380   -0.6945119410
 H   -0.5951330817   -2.5958773351   -0.0626735442