21

 C    0.0302371046    1.5084648719    0.0103074468
 C   -0.0377649944   -0.0182935928    0.0940327858
 C   -1.4626764322   -0.5447884127   -0.0650712718
 N   -1.4995939808   -1.9932973817    0.0331960425
 C   -2.7003089107   -2.6717571768    0.0135253591
 C   -2.4979960381   -4.1672441593   -0.0292781574
 O   -3.3807482421   -4.9842541568   -0.0718921064
 N   -3.8087025252   -2.0389088655    0.0662549649
 C   -5.0853371623   -2.7265411207    0.1431053972
 H    1.0586802293    1.8641894602    0.1200446965
 H   -0.3478041908    1.8706382111   -0.9517221614
 H   -0.5703455189    1.9738674204    0.7989261967
 H    0.6022625350   -0.4553376041   -0.6855808935
 H    0.3650139414   -0.3607449073    1.0549443855
 H   -2.1165632847   -0.1431222348    0.7160555031
 H   -1.8958948407   -0.2065341164   -1.0196404599
 H   -0.6978437059   -2.4839294006   -0.3330564643
 H   -1.4269685058   -4.4838598558   -0.0212549557
 H   -5.1399632874   -3.4455098856    0.9690963482
 H   -5.8685851693   -1.9759015957    0.2835661040
 H   -5.3100265910   -3.2868103469   -0.7730184398