19

 O   -0.3348512704    1.2620232308   -0.0527976064
 C   -0.0296333319   -0.1349458605    0.0358253431
 C    0.5915089628   -0.6865191364   -1.2689683497
 C   -0.0746069271   -0.0907031469   -2.5014410467
 O   -1.4702469126    0.0146238252   -2.4116437614
 C    0.6429917264    0.9655170842   -3.3090247604
 C    0.4443852941   -0.4335175290   -3.8623398630
 C    0.8085821056   -0.4343692861    1.1970159146
 C    1.5313235195   -0.6658368240    2.1293236829
 H    0.4963180885    1.7430590330   -0.1363106142
 H   -1.0090299672   -0.6057720939    0.1683287370
 H    1.6669222829   -0.4785605422   -1.2875054023
 H    0.4774825293   -1.7770477819   -1.2536604747
 H   -1.6357950772    0.7314369015   -1.7839944222
 H    0.0323538002    1.7557892023   -3.7310260597
 H    1.6435650271    1.2670639232   -3.0156657065
 H    1.3059678830   -1.0881804139   -3.9389779008
 H   -0.2975356825   -0.5601025186   -4.6419237344
 H    2.1521500694   -0.8731812367    2.9659371048