19

 C    0.0043633809    1.5076707755   -0.0134540332
 C   -0.0105174392   -0.0270730319   -0.0461807991
 C   -1.4491601251   -0.5524103474   -0.0933477396
 C    0.9603486173   -0.5999761686   -1.1138086400
 C    1.2481578151   -2.0582222565   -0.6831737801
 C    1.9675832219   -1.2701406257    0.4370135395
 O    2.2673925381   -0.2284924186   -0.5496958675
 C    0.7824251793   -0.6086997510    1.1594980390
 O    0.5253705563   -0.5472577023    2.3297349030
 H    1.0262588688    1.8896372799   -0.0561578838
 H   -0.5598446872    1.9159670882   -0.8594094610
 H   -0.4605854004    1.8673475040    0.9095330140
 H   -1.9845103711   -0.1329671229   -0.9520554195
 H   -1.5010997647   -1.6424257399   -0.1630484938
 H   -1.9807060470   -0.2537475104    0.8152277165
 H    0.8262006731   -0.2999254471   -2.1533540842
 H    0.4238836326   -2.7277742274   -0.4290558197
 H    1.9665397954   -2.5436353100   -1.3445891159
 H    2.8152926658   -1.6310075681    1.0156624554