18

 C    0.0741535971    1.4024038414   -0.0076783972
 O    0.1183771640   -0.0019484755   -0.1084349470
 C    0.4625559937   -0.6109192620    1.1202968292
 C    0.4975351149   -2.0596194041    0.9749543944
 C    0.5374481573   -3.2582905153    0.8650036284
 C    0.5608198271   -4.7212292494    0.7708534569
 C    1.4612226908   -5.3377956481    1.8519899853
 O   -0.7510570403   -5.2794735778    0.8019527104
 H    1.0493536991    1.8238429301    0.2849755088
 H   -0.1964820017    1.7880106471   -0.9928964327
 H   -0.6772202071    1.7377965795    0.7253097951
 H    1.4467867042   -0.2486755757    1.4669912887
 H   -0.2641347479   -0.3327935524    1.9043169523
 H    0.9528540725   -5.0029884412   -0.2139993531
 H    1.0999651829   -5.0691028038    2.8499550448
 H    1.4491186400   -6.4264184045    1.7550287991
 H    2.4902024000   -4.9797086827    1.7543125034
 H   -1.2026519066   -4.9103775353    1.5689712032