13

 N    0.0834943256    1.3651494930    0.1030324326
 C   -0.0035025045    0.0117076592    0.0344484598
 C   -1.1429151932   -0.7296130884    0.0171170281
 C   -1.1013784468   -2.1701161813   -0.0124549460
 O   -2.0388386012   -2.9238266638   -0.0255049078
 O    0.1755893853   -2.7570914646   -0.0292559961
 N    1.3406734752   -2.0175849549   -0.0250643720
 C    1.2409642627   -0.7401663521    0.0066092787
 O    2.3744940785   -0.0015405144    0.0064173887
 H    0.9756347292    1.7961486153   -0.0690612482
 H   -0.7399239702    1.9230154651   -0.0451838865
 H   -2.1276482418   -0.2793554000    0.0298114546
 H    3.1202704513   -0.6180743231   -0.0226036857