22

 C   -0.2195726424    1.5078081815    0.0966414422
 C    0.0023885871   -0.0079455716    0.0491357008
 C    0.6868867904   -0.4285893751   -1.2783925149
 C    0.4245676390   -1.8763125604   -1.7094807784
 C    0.9001076602   -2.9425029442   -0.7174465557
 C    0.2994404265   -2.8116592060    0.6813292006
 O    0.9336397613   -1.8147480191    1.4872354508
 C    0.8024122907   -0.4757216646    1.2524426896
 N    1.3689465177    0.3539584842    2.0262343862
 H    0.7305838339    2.0414080721    0.0178236993
 H   -0.8656042972    1.8138169775   -0.7326407282
 H   -0.6837216806    1.8105571563    1.0370961432
 H   -0.9822631503   -0.4955275303    0.0863932156
 H    0.3208633766    0.2361065532   -2.0687427667
 H    1.7654334072   -0.2425564760   -1.1974244341
 H   -0.6550777421   -2.0040962803   -1.8715928306
 H    0.9000922946   -2.0530567289   -2.6812331844
 H    0.6386628140   -3.9350353924   -1.1046879600
 H    1.9926394593   -2.9215271641   -0.6186237098
 H   -0.7838007745   -2.6383126018    0.6326251253
 H    0.4568423820   -3.7350683097    1.2447112470
 H    1.8712519666   -0.1476490603    2.7617281623