14

 C    0.4675869437    0.8344336783    0.3346526884
 O   -0.5594872046    0.5999371820   -0.6309513753
 C   -1.4518598044   -0.3555171802   -0.2871610101
 C   -1.3778972062   -1.6158824365    0.2527196034
 O   -0.2556126442   -2.2660556733    0.6601521427
 N   -2.6183324671   -2.1756772888    0.3517432357
 C   -3.4554459775   -1.2803711271   -0.1331952142
 N   -2.8000897579   -0.1554241260   -0.5272164534
 H    1.1096803150    1.6102235932   -0.0859608950
 H    0.0384164444    1.1819573884    1.2824954681
 H    1.0516443370   -0.0726451230    0.5172539532
 H   -0.5546618336   -3.1054091830    1.0298936968
 H   -4.5233400766   -1.3970525648   -0.2279955512
 H   -3.1893291579    0.6767908609   -0.9374326690