17

 N   -0.0751810285    1.2352254596   -0.2617790431
 C   -0.0462116593   -0.0183945734   -0.1232601567
 O   -1.1967206772   -0.7106566562   -0.0118241161
 C   -1.0748091353   -2.1205546546    0.1857279670
 C   -2.4689149941   -2.7094057749    0.1421664344
 C   -3.1182390543   -2.7633390689   -1.2572524457
 O   -2.9840788466   -4.2012104780   -1.3091029655
 C   -2.5187322327   -4.2505030768    0.0529847016
 H    0.8725628091    1.5984037900   -0.3383240163
 H    0.8525522810   -0.6501851074   -0.0838003661
 H   -0.4505341813   -2.5611742472   -0.6048060765
 H   -0.5967877814   -2.3259008125    1.1539963048
 H   -3.0844919813   -2.2603548585    0.9235767321
 H   -4.1680454512   -2.4481629985   -1.2933561114
 H   -2.5677800396   -2.2636508795   -2.0626057430
 H   -1.5589582056   -4.7761924008    0.1442217080
 H   -3.2462136018   -4.7276468322    0.7219111626