16

 C    0.0343229342    1.4741971268    0.0182116815
 N    0.0254505542    0.0150311552    0.0221397661
 C    0.6955529397   -0.5113162927    1.2075473529
 C   -1.3381621287   -0.5168485416   -0.1066419819
 C   -2.0316839063   -0.0184846507   -1.3002277090
 C   -2.6327248497    0.3762851425   -2.2606693870
 C   -1.3136784806   -1.9956309007   -0.1564099276
 N   -1.3174823449   -3.1499724963   -0.1745189020
 H    1.0714542807    1.8167870987    0.0579483508
 H   -0.4192070414    1.8514901780   -0.8996821443
 H   -0.5040293644    1.9107399559    0.8806484525
 H    0.1952466603   -0.2190822207    2.1501846806
 H    0.7433747325   -1.6016844462    1.1649614923
 H    1.7178397255   -0.1259654748    1.2325760575
 H   -1.9571391491   -0.2512346450    0.7773888161
 H   -3.1573313321    0.7228113619   -3.1172884984