18

 O   -0.0521464221    1.4159561420    0.1513106369
 C   -0.0530095193   -0.0079118500    0.1711045657
 C   -1.4136540925   -0.5011812505    0.0017027203
 C   -2.5325138882   -0.9233755021   -0.1350385065
 C   -3.8830498190   -1.4537042745   -0.3056362088
 C   -3.9508915573   -2.9679338979   -0.1616674698
 C   -4.0884718432   -3.5931077625    1.2001532912
 C   -5.2480345524   -3.6242379926    0.2325586926
 H    0.8600073926    1.7019506709    0.2651658385
 H    0.5821039910   -0.4153270498   -0.6328578425
 H    0.3548351644   -0.3908938236    1.1211574652
 H   -4.5535906097   -0.9927974490    0.4321222664
 H   -4.2703819280   -1.1599921739   -1.2906382625
 H   -3.3337749397   -3.5041622810   -0.8764658569
 H   -3.5582535054   -4.5171884916    1.4012530553
 H   -4.1600178038   -2.9287874304    2.0552116954
 H   -6.0989174156   -2.9832220486    0.4407266904
 H   -5.5103294917   -4.5684979648   -0.2315573510