15

 O   -0.0212731223    1.3909492440   -0.0741285497
 C    0.0381431226   -0.0112310643   -0.0199198618
 C    0.1177450892   -0.6150612681    1.4353552207
 C   -1.4119552125   -0.2824906976    1.5239381588
 C   -1.4006920471   -0.6105376875   -0.0113865217
 C   -1.0949425683   -2.0987617059    0.0477339261
 O   -1.5659051517   -3.0257922904   -0.5454207079
 C    0.0522167621   -2.0983255736    1.1247505408
 O    0.6928232728   -3.0231216049    1.5363602854
 H    0.8652607530    1.7363163316    0.0760278449
 H    0.7446713365   -0.4074753027   -0.7605506008
 H    0.8503754010   -0.2839381110    2.1685833698
 H   -2.0359760876   -0.8942245587    2.1790523380
 H   -1.5802009441    0.7778556213    1.6992963153
 H   -2.1666534836   -0.2736165421   -0.7051061780