18

 C    0.2919006910    1.4630626004   -0.0215516898
 C    0.0659116530   -0.0094102653    0.0470536328
 C   -0.9572012263   -0.7250229468    0.8479212539
 C    0.5130210662   -1.0691825904    1.0693322716
 C    1.0202374600   -1.8277941082   -0.1522387317
 O    0.4941626957   -0.8226008071   -1.0550856694
 C    1.1565700930   -0.8049342842    2.3777765984
 N    2.2848393043   -1.5358495804    2.6428968958
 O    0.7352404727    0.0434799904    3.1469812462
 H    1.3104695558    1.6835791635   -0.3536628846
 H   -0.4083515210    1.9303298106   -0.7227916379
 H    0.1401629430    1.9004632121    0.9685656604
 H   -1.3795749383   -0.1687311231    1.6774454606
 H   -1.6049473141   -1.4558895273    0.3717835488
 H    2.1139266675   -1.8698458094   -0.2277299327
 H    0.5971529199   -2.8215699965   -0.3443803176
 H    2.5060359665   -2.3668342122    2.1215064254
 H    2.6770187110   -1.4447609062    3.5666371798