18

 C   -0.0295784351    1.4811434821    0.0099076192
 C    1.4682323160    1.7322021342   -0.0027691283
 C    2.0364610587    0.8101854053    1.1174495310
 C    3.4591485532    0.5611591958    0.6399996574
 C    3.4465541968    0.5688139508   -0.6963199671
 C    2.0151488554    0.8231439997   -1.1439891042
 C    1.1495075441   -0.4086265250   -0.7529130869
 C    1.1634737020   -0.4171173845    0.7286662801
 N   -0.0611184522    0.0015421841    0.0017286963
 H   -0.5316879482    1.8596739280    0.9065787532
 H   -0.5484547979    1.8698678165   -0.8727472605
 H    1.8322591822    2.7586141019   -0.0003178086
 H    1.9165104396    1.1498239221    2.1471685617
 H    4.2961158789    0.3426837499    1.2905434035
 H    4.2710891816    0.3578963908   -1.3649819105
 H    1.8758510779    1.1745470517   -2.1673051285
 H    1.0836694851   -1.2940234901   -1.3731595178
 H    1.1092426618   -1.3095730532    1.3398535099