20

 C   -0.0888235064    1.5265222736    0.0034281616
 C    0.0948498572    0.0051586629   -0.0544338808
 C    0.8392504786   -0.4599501735   -1.2756175394
 C    2.2774988808   -0.1199344217   -1.7462825303
 C    1.7342579183   -1.0669899508   -2.8350371659
 O    2.3081559319   -1.4736291545   -4.0228615324
 C    0.9198716362   -1.9319024170   -1.7985341043
 N   -0.3937014043   -1.8132528470   -2.5132705004
 C    0.2881515370   -0.4976447611   -2.7452835069
 H    0.8755624341    2.0453063715    0.0147365102
 H   -0.6517126727    1.8886273998   -0.8632617386
 H   -0.6364595130    1.8209045858    0.9037892685
 H    0.6294041932   -0.3350338167    0.8423445388
 H   -0.8820567854   -0.4921135195   -0.0451724299
 H    2.4665755308    0.9151024117   -2.0470475777
 H    3.0940186605   -0.4963997291   -1.1200310849
 H    3.1284160140   -1.9389975763   -3.8254499302
 H    1.2288942839   -2.8207079702   -1.2440070116
 H   -0.3717893368   -2.3681120875   -3.3731066024
 H   -0.1510851079    0.3195746495   -3.3198211631