17

 C    0.0532420366    1.4243043153    0.0335452456
 C   -0.4876025738    0.0564609867    0.4172611576
 O   -0.9234230503   -0.1945823276    1.5225983169
 N   -0.4320012971   -0.8600400098   -0.6148061355
 C   -0.8265232897   -2.2053656029   -0.6638926259
 N   -0.6469814320   -2.7967078830   -1.7736281984
 C   -1.4206803480   -2.8007114760    0.6092792992
 C   -1.7954102310   -4.1984801333    0.4513058430
 C   -2.1035217242   -5.3522612790    0.3174205713
 H    1.1010711557    1.3563850314   -0.2770334808
 H   -0.5146118233    1.8481996206   -0.8012517068
 H   -0.0260102087    2.0838708446    0.8965390261
 H   -0.0515364824   -0.5534537241   -1.4998459856
 H   -0.9622513747   -3.7643983119   -1.7107972453
 H   -0.7043204549   -2.6787386153    1.4284704632
 H   -2.2816235833   -2.1980954756    0.9170980577
 H   -2.3808862488   -6.3723834000    0.2151047577