16

 O    0.3041906380    1.0285367578    0.6006996853
 C    0.0561807937   -0.2589408937    0.1453222153
 C   -1.3829276001   -0.7269044660   -0.0458025650
 C   -2.4897575552    0.2880710091    0.0714649542
 O   -2.9764109701    0.6801688828   -1.2355651995
 C   -2.0718225463    1.0926999617   -2.1486582427
 N   -2.3411388827    1.7596337719   -3.1823506901
 O   -0.7654913934    0.7669195006   -1.9034972203
 C   -0.4983408898   -0.4442139880   -1.2346241019
 H    0.3346121711    1.6069459200   -0.1727942120
 H    0.7683254955   -0.9940879302    0.5090538949
 H   -1.6202193521   -1.7608563790    0.1754609373
 H   -3.3649815054   -0.1180293401    0.5777393557
 H   -2.1485162254    1.1793941850    0.6075649764
 H   -3.3295583180    2.0053999986   -3.1800856397
 H   -0.1509283498   -1.2302892404   -1.8971577179