20

 C   -0.2069624057    1.5797151402   -0.1619058916
 C   -0.0000495630    0.0728783687   -0.0249771948
 C    0.7287462139   -0.5865905499   -1.2290915047
 O    0.7103188703    0.1843954771   -2.4024557073
 C    2.0057204522   -0.5767220589   -0.3481898298
 N    1.1345244050   -0.3816956416    0.8239204852
 C    1.6030861487    0.3792644973    1.9553763074
 C    2.4803155047   -0.4811599258    2.8540407190
 O    3.4333156459   -0.0796410939    3.4681305952
 H    0.7111986593    2.0967095370   -0.4525038338
 H   -0.9562543656    1.7799861983   -0.9327455009
 H   -0.5667197891    2.0093689527    0.7784990533
 H   -0.9471996023   -0.4013157444    0.2604863999
 H    0.3670790414   -1.6060241142   -1.4095362304
 H    1.1521364934   -0.3087630066   -3.1001392594
 H    2.6295061225   -1.4773307065   -0.3189592188
 H    2.6393897861    0.2930454685   -0.5850972031
 H    2.1527058790    1.3030134413    1.7081364509
 H    0.7350264133    0.6682877817    2.5668257487
 H    2.1473968899   -1.5430096711    2.9018210148