21

 C   -0.1784987453    1.5475324470    0.1491479733
 C   -0.0170401293    0.0474741069    0.0077796496
 C    0.5040387281   -0.6965318503   -1.1884311631
 C    1.1445645736   -0.1083355606   -2.4152394365
 N    1.1385419165    1.3413293677   -2.6900250387
 C    2.4011625310    0.6891882671   -2.2982446225
 C    2.9178195358    1.0184913603   -0.9071481309
 C    2.5530050651   -0.0655762966    0.1424151442
 N    1.2388222745   -0.7004621341    0.0904987336
 H    0.3878008558    2.1157439800   -0.5835747112
 H   -1.2353131254    1.8019177781    0.0117942330
 H    0.0996407081    1.8640065078    1.1617442410
 H   -0.8014824494   -0.4868502966    0.5472944969
 H    0.0325406381   -1.6552783233   -1.4037603508
 H    1.0636029372   -0.7605432369   -3.2812801609
 H    1.1148127352    1.4933042749   -3.6944432892
 H    3.1489418327    0.5465726407   -3.0738332135
 H    4.0092473933    1.1054745227   -0.9276575181
 H    2.5336212116    1.9950828446   -0.6047046037
 H    3.2755128341   -0.8861989816    0.0478511198
 H    2.6857257686    0.3475655421    1.1481955377