12

 O    0.0992037466    1.3388441762    0.1012560366
 C    0.0694420029   -0.0095813052    0.0600708536
 N    0.0914069423   -0.5822287742   -1.1380607591
 C    0.0620727898   -1.9200007060   -1.1848301320
 C    0.0105201235   -2.7260594932   -0.0570534586
 C   -0.0117470287   -2.1011776873    1.1925649912
 C    0.0178386793   -0.7191586845    1.2656348897
 H    0.1329068274    1.6294368350   -0.8209296325
 H    0.0811543924   -2.3583692773   -2.1795825155
 H   -0.0114881260   -3.8048236341   -0.1512326643
 H   -0.0519489832   -2.6910551485    2.1025113488
 H    0.0025463638   -0.1842215009    2.2069306421