16

 O   -0.0619816488    1.4095219950   -0.0536253330
 C    0.0252567408   -0.0116464660    0.0542683834
 C   -1.4063032670   -0.5179120654   -0.0097046327
 O   -2.1821117974    0.0785279998    1.0024663925
 C   -2.1154343412   -0.5082488675   -1.4259296029
 C   -2.2557009703   -2.0295553869   -1.3021737275
 O   -0.9319937051   -2.5649854911   -1.1432217568
 C   -1.5982774626   -2.0460415757    0.0123029091
 H    0.8003426340    1.7871735777    0.1392965185
 H    0.6175811015   -0.4483360130   -0.7580854138
 H    0.4688126073   -0.3067481563    1.0170025270
 H   -1.9217153205    1.0093002748    1.0117906312
 H   -3.0689259521    0.0177704126   -1.3519436942
 H   -1.5445510900   -0.1511237114   -2.2859616203
 H   -3.0054233010   -2.6922463466   -1.7178735059
 H   -1.7163116777   -2.6903983199    0.8759922754