16

 C   -0.0664275349    1.5474492568    0.0081313813
 C   -0.0407664781    0.0269507762    0.1201876367
 N   -1.3460426125   -0.5346769355   -0.1910808727
 C   -1.5243671900   -1.9006611023   -0.0903557808
 C   -0.6106540033   -2.9341547399   -0.1532112385
 N   -1.3935288660   -4.0455057953   -0.0464788861
 N   -2.6847660450   -3.7374443247    0.0822739164
 N   -2.7730050751   -2.4339101697    0.0584287449
 H    0.9223074894    1.9648669631    0.2167186297
 H   -0.3716252614    1.8574883513   -0.9953346411
 H   -0.7694017863    1.9823134108    0.7277339718
 H    0.6846740263   -0.3796160397   -0.5963665762
 H    0.3075422811   -0.2730159995    1.1238951272
 H   -2.1255200212   -0.0290907546    0.2087197161
 H    0.4580468474   -2.9791054101   -0.2602926061
 H   -1.1153629003   -5.0132614869   -0.0478720626