17

 C    0.0881156610    1.4300319351    0.4824255631
 N    0.0587106367   -0.0246172794    0.4584503666
 C   -0.9861240660   -0.5836664647    0.0315045527
 N   -2.2073276221   -0.1514570293   -0.4900774097
 C   -2.7685060875   -1.4961807341   -0.6892201625
 C   -3.0797086059   -1.8394144594   -2.0659184562
 C   -3.3005750789   -2.1469422051   -3.2071612391
 C   -1.3801046911   -2.0593184088   -0.1333204631
 O   -0.6219084123   -2.9059423701   -0.9267463488
 H    1.1238004713    1.7730229947    0.4047974777
 H   -0.4869134283    1.8946254339   -0.3339319259
 H   -0.3080939508    1.8135876139    1.4329097286
 H   -2.7205809573    0.6931094236   -0.2926709149
 H   -3.6149309035   -1.7297483121   -0.0327557462
 H   -3.5141704969   -2.4118255426   -4.2134669099
 H   -1.5131458986   -2.5618303401    0.8275373610
 H   -0.4785564199   -2.4816553055   -1.7809070335