17

 C   -0.1265069674    1.6320201852    0.1094899654
 C    1.3916810921    1.3292105512    0.0393970895
 C    1.2410679400   -0.0441702988    0.8030790823
 O    1.9491769005   -0.8251511045   -0.1952315947
 C    1.1796192496    0.1525872477   -0.9747440355
 C    0.6618318098   -0.2569163492   -2.3237247782
 C   -0.4758961105   -1.2386556290   -1.8736474234
 O   -0.9734730050   -0.7908290124   -0.5822741083
 C   -0.0552630135    0.1019185624   -0.0723995973
 H   -0.5075515282    2.0094303085    1.0612319675
 H   -0.5404144287    2.2028641424   -0.7263835169
 H    2.2367478349    2.0108317604    0.1082279472
 H    1.4010232022   -0.2670845954    1.8583820335
 H    0.2461607400    0.6050529220   -2.8540075553
 H    1.3965498160   -0.7472400172   -2.9655782172
 H   -1.3188245810   -1.2593288325   -2.5701859428
 H   -0.0780298008   -2.2525662310   -1.7636067159