17

 O   -0.1937056280    0.5283447618   -1.0961393305
 C   -0.0607545416    1.2703355310   -0.1639038122
 C   -1.1610763543    1.6125071517    0.8293818390
 C   -1.2188530408    3.0924838936    1.1936168723
 C   -2.4575845625    3.8620938179    1.0292049716
 O   -2.0573809297    3.3812053792    2.3173843211
 C    0.1387072458    3.7827474711    1.1587802209
 C    1.2533848692    2.7433885222    1.1959783484
 O    1.1447523851    1.8484638860    0.0760914458
 H   -2.1059530665    1.2409819224    0.4338402372
 H   -0.9502489551    1.0539558292    1.7518165044
 H   -2.4089437472    4.9430086806    0.8991138371
 H   -3.3388792468    3.3843377212    0.6032497330
 H    0.2432004420    4.3674586604    0.2378425285
 H    0.2190024029    4.4688131189    2.0067109397
 H    2.2388062578    3.2023401427    1.1011627426
 H    1.2342737696    2.1689814400    2.1310608312