16

 C   -0.5208682477    1.4123513309    0.4775359326
 N   -0.4697637629   -0.0433324954    0.4056868623
 C   -1.4777654218   -0.6778861615   -0.4333374292
 C   -1.1945241384   -0.7055072161   -1.9367190714
 C   -1.6703643720   -2.0870433419    0.1283404934
 O   -1.5629593279   -3.1090424103   -0.4987570880
 C   -1.9940014799   -2.1281215216    1.5729216160
 N   -2.3147404846   -2.2056167120    2.6812583718
 H    0.2926755845    1.7661145404    1.1162286206
 H   -0.4380226197    1.9215824585   -0.4965695460
 H   -1.4632861412    1.7195526651    0.9422008484
 H    0.4549883365   -0.3576032051    0.1327830171
 H   -2.4239656392   -0.1504799238   -0.2423789721
 H   -2.0128005031   -1.1787106400   -2.4858173245
 H   -1.0673181016    0.3121857920   -2.3150052332
 H   -0.2844475310   -1.2754965391   -2.1460264479