18

 C   -0.1310862616    1.5514600559    0.1222868389
 C    0.0807741869    0.0517219195   -0.0002019631
 C    1.2375396398   -0.5579262873   -0.8248693451
 C    2.2496879911   -0.1497965633    0.3481659359
 C    0.9690531928   -0.7624746673    1.0048909497
 N    0.3536156657   -1.6592184202    1.9875477337
 C   -0.0659487554   -2.5240007344    0.9268039403
 O   -0.8723185532   -3.4025703979    0.9061658479
 C    1.0450468785   -1.8975336284   -0.0105068066
 H    0.7891054650    2.1095569374    0.3117647134
 H   -0.5732492009    1.9491398564   -0.7977019169
 H   -0.8273723444    1.7745795210    0.9383765340
 H   -0.8771290853   -0.4458758909   -0.1930492761
 H    1.4270044714   -0.4431928652   -1.8933151199
 H    3.1630972009   -0.7424481767    0.4170698332
 H    2.4561437982    0.9129514134    0.4804078264
 H   -0.2712486135   -1.3788313076    2.7366521939
 H    1.9415877939   -2.5194564544    0.0508084604