15

 O   -0.1322624930   -0.0141083532   -0.5479985615
 C   -0.1006380133    1.1647406708   -0.2434213347
 N   -1.1425207220    2.0750472937   -0.1716713019
 C   -0.6849443826    3.3342449807    0.2108720416
 C    0.6479881838    3.2386138074    0.3847576056
 N    1.0147139437    1.9214104669    0.1128101419
 C    2.3457581074    1.3451878529    0.1392276665
 C    3.0447916934    1.5639955761    1.4029179764
 C    3.6332188388    1.7647877694    2.4304947176
 H   -2.0896524956    1.8136549979   -0.3787954043
 H   -1.3462893586    4.1743746365    0.3294420576
 H    1.3691603891    3.9732766755    0.6976182676
 H    2.2015798804    0.2757047244   -0.0507463875
 H    2.9500844402    1.7425745865   -0.6876643328
 H    4.1499104584    1.9253408743    3.3444055782