15

 O    0.0117911889   -0.0576917381   -0.2870498164
 C    0.0415408842    1.1500186756   -0.1974101761
 N    1.1702753400    1.8908326810    0.0325410700
 C    1.2346669389    3.3624474834    0.0313996306
 C    2.7698494828    3.5987391322   -0.0325259375
 N    3.4080120874    2.2823587684    0.1030631528
 C    2.4915343759    1.3988770557    0.1175070458
 C    2.7829870325   -0.0735816346    0.3019384721
 O    3.7680929083   -0.5845559601   -0.1574090223
 H   -0.8576834983    1.7864498571   -0.2912666678
 H    0.7008603410    3.7752530850   -0.8278731155
 H    0.7891700715    3.7682381589    0.9451096546
 H    3.0856636475    4.0450516272   -0.9819814593
 H    3.1198355173    4.2599701886    0.7645936801
 H    2.0451767820   -0.6234741202    0.9092025489