18

 O   -0.1502994348    1.3278605323    0.0306012347
 C   -0.0469929293   -0.0451123463    0.0235942980
 C    0.8285757657   -0.9874723493   -0.9010270873
 C    1.9965036665   -1.0064067156    0.1073478580
 C    0.7378013320   -1.0119825894    1.0005152194
 C   -0.0429673262   -1.9366206251   -0.0012579038
 C   -1.2334723190   -0.9826444945   -0.0395855834
 C   -2.5764781546   -0.9356483892    0.5539362390
 N   -2.3795529148   -0.9955277483   -0.9254105997
 H    0.7329935440    1.7133423085    0.0166789992
 H    0.8475913918   -0.9879908445   -1.9912218146
 H    2.6114865392   -1.9111394349    0.1242668784
 H    2.6393413199   -0.1195352640    0.1508052369
 H    0.6529098105   -1.0375566769    2.0874782214
 H   -0.0182533483   -3.0230258372   -0.0155191168
 H   -3.0287391899   -1.8257535604    0.9830941211
 H   -2.9105583316    0.0015986579    0.9919862676
 H   -2.5219605812   -0.0704554230   -1.3262096283