19

 C   -0.2160128104    1.4968631297   -0.0260800238
 C   -0.0741718743   -0.0135822676   -0.0186841226
 O   -1.3954983363   -0.5735003333   -0.0525034173
 C   -1.5009029233   -1.9252239300   -0.0427796118
 C   -2.9748351787   -2.3080498765   -0.1088820099
 O   -3.8295515808   -1.3558095035    0.4791589896
 N   -0.4690368974   -2.6539365946   -0.0321100627
 C   -0.5588032676   -4.0990195567   -0.0450028608
 H    0.7738981495    1.9622057912   -0.0053418743
 H   -0.7363228372    1.8374169847   -0.9260757468
 H   -0.7758518815    1.8428605297    0.8477483839
 H    0.4885388490   -0.3797580708   -0.8835652044
 H    0.4413295898   -0.3754178444    0.8767293346
 H   -3.2244722344   -2.4782075709   -1.1712310331
 H   -3.1348612005   -3.2570128682    0.4096277603
 H   -3.4389185885   -0.4929016692    0.2996542904
 H    0.1982515369   -4.5086392778    0.6317547453
 H   -1.5331345857   -4.5143584949    0.2471344979
 H   -0.3237851085   -4.4768693369   -1.0481454843