14

 C   -0.0134507335    1.4519818650   -0.0662500025
 N   -0.0065533281   -0.0126290477    0.0076766331
 C   -0.0121199604   -0.6379354678    1.2471474661
 O   -0.0226805984   -0.0515724568    2.2994515118
 C    0.0053465429   -0.7495257330   -1.1539619178
 C    0.0138487006   -2.1013550460   -1.4203237191
 N    0.0240452929   -2.2186977798   -2.7800887556
 N    0.0231266734   -1.1177982901   -3.3629979405
 O    0.0101824957   -0.0788163579   -2.2902866211
 H    0.8772206381    1.8084685203   -0.5883255815
 H   -0.9003554409    1.7994837931   -0.6006550034
 H   -0.0224230736    1.8201933666    0.9577555756
 H   -0.0060342742   -1.7365726134    1.1645426906
 H    0.0133564555   -2.9586437526   -0.7727741458