15

 N   -0.0204734633   -1.1350121044   -0.1011853021
 C    0.0005137529    0.0187056816   -0.0331720132
 C    0.0247039108    1.4729699528    0.0347152370
 C   -0.4286475350    2.0633313261    1.4208618532
 C    0.8825674633    2.8072913312    1.7478381273
 C    1.2413424905    3.5356673477    0.4334303119
 C    1.4726958673    2.0602300787    0.0477888032
 O    1.8920854006    1.8023251330    1.4129098447
 H   -0.5622565522    1.8698109436   -0.7983487190
 H   -1.2962295264    2.7206448125    1.3330082028
 H   -0.6417552870    1.2818807715    2.1504481690
 H    1.0000008777    3.2479781593    2.7366028305
 H    0.4778694092    4.1197779828   -0.0870295081
 H    2.1823184948    4.0793654182    0.5115215638
 H    2.1687731067    1.7208483353   -0.7173167210