15

 N    0.5106762223   -1.0486481607   -0.0826049947
 C    0.2891672330    0.0856309656   -0.0796434550
 C    0.0091284861    1.5172514670   -0.0743500970
 N   -0.3046154906    2.1802913739    1.2840945136
 C    0.9177337350    2.7737815625    2.0599194280
 C    2.3974956989    2.4065309754    1.8362923168
 C    2.3391138096    2.0538274063    0.3584589324
 C    1.1769801943    2.5102106005   -0.1606853331
 C    0.4256192453    3.4001563659    0.8333049356
 H   -0.8656593060    1.7240429364   -0.6988223647
 H    0.5591007461    3.0686852035    3.0415772012
 H    3.0227778972    3.2516226376    2.1563410156
 H    2.7418570444    1.5251044126    2.3877883616
 H    2.7847730774    1.1263024622    0.0127720359
 H   -0.0613363932    4.3538959213    0.6679871438