17

 C    0.2348703558    1.2594768193   -0.2352677899
 O   -0.1972483305   -0.0148514601    0.2058691732
 C    0.6136313821   -0.5635585880    1.2039678114
 C    0.1606876504   -1.9762897928    1.6690270819
 C    1.6170474967   -2.5103269165    1.4892640458
 C    1.9507014969   -1.1963944818    0.8121057559
 N    2.8865945739   -0.7453703298    0.0890945354
 O    3.9055313512   -1.7014916800   -0.0792254427
 H    1.2356036153    1.2123693126   -0.6817982111
 H   -0.4837212731    1.5973337405   -0.9856451423
 H    0.2526255880    1.9844357538    0.5937998639
 H    0.7346273549    0.1447632927    2.0413248486
 H   -0.2719925131   -2.0404781784    2.6680033480
 H   -0.5339759884   -2.4018885065    0.9428264679
 H    2.1630520908   -2.6613268781    2.4256255610
 H    1.7474334115   -3.4024558177    0.8722021046
 H    4.5264678177   -1.2384072492   -0.6520144815