17

 N   -0.3238769369    1.1795659596   -0.3156577783
 C   -0.2149919542   -0.1849916846   -0.1516401121
 O    0.7360906625   -0.8375069086   -0.5228059647
 N   -1.3007518830   -0.7371596529    0.5542818435
 C   -2.7002100368   -0.7049830617    0.1512557890
 C   -2.9963398747   -0.4475080179   -1.3154139477
 O   -2.0851894101   -1.2630610437   -2.0372864381
 C   -1.7843603228   -2.4220093822   -1.2630872883
 C   -1.9225723943   -1.9883597342    0.1863924626
 H    0.5362973133    1.6374691256   -0.5735917823
 H   -0.9183860440    1.6865111227    0.3204906346
 H   -3.4256990048   -0.4215203653    0.9080483214
 H   -4.0459333098   -0.7190216910   -1.5177161952
 H   -2.8322832226    0.5856544616   -1.6353330499
 H   -2.4946915881   -3.2397915074   -1.4637579013
 H   -0.7743065686   -2.7370261915   -1.5307783885
 H   -2.0321830152   -2.7350612785    0.9663226554