14

 O    0.1003376551    1.3302307403    0.2377623613
 C    0.0694150033   -0.0021542734    0.0503185677
 N    0.0556583157   -0.5659377336   -1.1280917660
 O    0.0241565570   -1.9343087122   -0.8703320320
 C    0.0202253571   -2.1407560830    0.4641388795
 C    0.0483496959   -0.9459991076    1.1171005719
 N    0.0570028339   -0.6096950143    2.4645423523
 C    0.0358248184   -1.5047179228    3.5001112269
 N    0.0058430197   -2.7660378435    3.3096378960
 H    0.1102465828    1.7536128242   -0.6307385572
 H   -0.0031074241   -3.1569631648    0.8118388048
 H    0.0807559867    0.3731938769    2.6783377744
 H    0.0480846974   -1.0012258810    4.4728956125
 H   -0.0057301789   -3.2583752452    4.1990130080