12

 O   -0.0815491177    0.0230853518    0.0026858458
 C   -0.0476406232    1.2207096987    0.0089897989
 C    1.3247799608    1.9358977734   -0.0018002902
 O    2.3728469037    1.3528667727   -0.0164414189
 N    1.2748552484    3.3474298034    0.0062771092
 C    2.3311552684    4.2189021071   -0.0006043005
 N    1.8986406714    5.4523442418    0.0107566474
 C    0.5324785593    5.3001577036    0.0249823768
 N    0.1028697628    4.0598059287    0.0229171032
 H   -0.9402160549    1.8660222875    0.0215837459
 H    3.3540297072    3.8779951462   -0.0136623979
 H   -0.1494848061    6.1372971251    0.0369588204