22

 C   -0.1642946561    1.5380792356   -0.0567265107
 C    0.0894132271    0.0324430401   -0.0071333531
 C    0.9118102748   -0.5271352529   -1.1964003535
 C    1.5462621304   -1.7613065106   -0.6060721118
 C    1.4838962099   -1.7797087226    0.7275120825
 C    2.0211031672   -2.8380699735    1.6400222512
 C    0.8164182570   -0.5181012488    1.2606524178
 C    1.8470441472    0.4391762864    1.8878637268
 H    0.7700880483    2.1086721044   -0.0581926085
 H   -0.7132858763    1.8060895242   -0.9660442037
 H   -0.7607208797    1.8753429167    0.7982779038
 H   -0.8832276586   -0.4748005455   -0.0387789895
 H    0.2829642967   -0.7364626574   -2.0699891596
 H    1.6750641450    0.1902898021   -1.5355873323
 H    2.0195386442   -2.5286982024   -1.2109437252
 H    2.4789530931   -3.6575811288    1.0788950658
 H    2.7778555458   -2.4367548858    2.3258297271
 H    1.2260737469   -3.2594582924    2.2691391784
 H    0.0800050762   -0.7628054663    2.0386820522
 H    2.6061363822    0.7421111507    1.1588880549
 H    1.3679899961    1.3433146066    2.2759168868
 H    2.3658907725   -0.0411889700    2.7236740108