23

 C   -0.1372024187    1.4816351088   -0.2161810275
 C   -0.0566559331   -0.0130798456    0.0684274769
 C   -0.4035885218   -0.4477226961    1.4920900287
 C    1.0307150714   -0.4534251778    1.0270622631
 C    1.8836655963   -1.7061994105    0.9346168478
 C    1.2321132521   -2.9714636484    0.3731383896
 C    0.9402619037   -2.9199937630   -1.1328567759
 C   -0.1723125429   -2.0038871656   -1.5719099003
 C   -0.5624385127   -0.8305551309   -1.0686766991
 H    0.5146465301    1.7618983800   -1.0513955864
 H   -1.1596920965    1.7773894213   -0.4796049639
 H    0.1639441450    2.0690034886    0.6566211267
 H   -0.7207277868    0.3106676132    2.2015859793
 H   -0.9125258566   -1.3989915864    1.5991308494
 H    1.6116172579    0.3863597406    1.4045127501
 H    2.7737194151   -1.4782635758    0.3307080213
 H    2.2563057758   -1.9228042258    1.9451011676
 H    1.9118800141   -3.8113411171    0.5613162775
 H    0.3079850152   -3.2016316351    0.9171965939
 H    1.8678147365   -2.6520593601   -1.6635236880
 H    0.6980584170   -3.9328015487   -1.4774119613
 H   -0.7329808447   -2.3621386660   -2.4338977897
 H   -1.4048203063   -0.3539102696   -1.5717232198