18

 C   -0.0988155511    1.5524046592    0.0041994518
 C   -0.0877711356    0.0500009629    0.1240687708
 O    1.1321343081   -0.6234497854   -0.2025946386
 C    0.6651605158   -0.6791109635    1.1620900517
 C    1.5210412060   -0.0244910404    2.2562094587
 C    1.5179311943   -1.0297578756    3.4414008695
 C    0.7138239302   -2.2002049748    2.9281582471
 C    0.2518782252   -2.0033544598    1.6943436260
 H    0.8060674999    1.9920623663    0.4299558738
 H   -0.1579009362    1.8495718915   -1.0482768818
 H   -0.9696299490    1.9725550222    0.5196967059
 H   -0.9775298288   -0.4413793563   -0.2789904940
 H    2.5285814296    0.1427422918    1.8675006829
 H    1.1239207654    0.9492322756    2.5548685272
 H    2.5295721700   -1.3339976283    3.7362636247
 H    1.0597126021   -0.5977656326    4.3397746791
 H    0.5426518263   -3.0893296401    3.5251162203
 H   -0.3446216623   -2.6943047925    1.1105472148