17

 C    0.0047226111    1.3142728183   -0.2424259284
 O   -0.0342664808    0.0444945942    0.3792055330
 C   -1.2682606350   -0.5878965466    0.2685584184
 C   -1.5953078253   -1.3766295696   -1.0675325191
 C   -0.4831054029   -2.3902405223   -0.6254663785
 C   -1.2723795992   -2.0841178982    0.7179981398
 O   -1.0385598720   -2.5608277742    1.9783744479
 C   -2.5094379266   -2.2131684446   -0.1727979027
 O   -3.5768808763   -2.7493425044   -0.1602198890
 H    0.9888675248    1.7404262793   -0.0371078544
 H   -0.1351312858    1.2419467109   -1.3304486407
 H   -0.7669010261    1.9844573636    0.1645961122
 H   -2.0758514920    0.0468984168    0.6571963775
 H   -1.7766858610   -0.9763649013   -2.0585677582
 H   -0.5457430330   -3.4034827982   -1.0232055402
 H    0.5258075357   -1.9859547450   -0.6401191631
 H   -1.7371391755   -3.1892274986    2.1966283355