13

 C    0.0660722088    1.3978750108   -0.0880286913
 N   -0.1781816980   -0.0132191615    0.1518009284
 C    0.5653637500   -0.6602596677    1.1179709827
 N    0.7201082467   -1.9879998574    1.1164530989
 N    1.4387908875   -2.2041832883    2.2228514207
 N    1.7701627927   -1.1449215119    2.9329975632
 C    1.2269415652   -0.1334831524    2.2511646128
 H    1.1094483336    1.6286581772   -0.3542723214
 H   -0.5829239073    1.7363152282   -0.8986388634
 H   -0.1926376661    1.9795197302    0.8030470421
 H   -0.2946190674   -0.5711443662   -0.6813815416
 H    1.7165133567   -3.1326103796    2.4926427053
 H    1.3296524976    0.8836637588    2.5900487536