18

 O    0.0763801128    1.3910788810    0.3387483134
 C    0.0687308705    0.0030733276    0.1095943504
 C   -1.3442138293   -0.6539200347    0.0359771675
 C   -2.5895700730    0.2453634236   -0.1113997577
 C   -2.8359762468    0.3617065254   -1.6409338836
 C   -2.1376955196   -0.8732080246   -2.2619949696
 N   -1.0177038869   -1.1080277374   -1.3505563904
 C    0.1511185918   -0.3538800461   -1.3935105443
 O    0.8487822404    0.0138591930   -2.3018516947
 H    0.7154875209    1.7749148762   -0.2740234186
 H    0.7717720821   -0.5219648431    0.7688136951
 H   -1.4970947492   -1.4779612186    0.7361119167
 H   -3.4425786983   -0.2251620248    0.3851201007
 H   -2.4290120497    1.2218670152    0.3486753616
 H   -3.8986470663    0.4147827336   -1.8897334807
 H   -2.3593891270    1.2678837869   -2.0279282107
 H   -2.7923538800   -1.7508451526   -2.2805371812
 H   -1.7592863522   -0.6991487606   -3.2712464539