20

 C   -0.1311249562    1.4473975344   -0.0597395215
 N    0.0410260525    0.0034177610    0.0396255941
 C    1.4082582760   -0.5071657101   -0.1903854599
 C    0.7969025720   -0.5194504971    1.1505072719
 C    1.1645524183    0.1670215227    2.4914565337
 C   -0.1393756533   -0.5037855359    3.0414270227
 C    0.3263937500   -1.6369215523    2.0910382296
 O    1.5542604196   -2.0889896936    2.6866481701
 C    2.2147308825   -0.8351509723    2.9920573124
 H    0.7401992477    2.0248214708    0.2900110639
 H   -0.3179027633    1.7113354616   -1.1052142276
 H   -1.0036204836    1.7530257944    0.5271032916
 H    1.4826852404   -1.4152004467   -0.7827920548
 H    2.1904938641    0.2280923976   -0.3797758517
 H    1.3816292085    1.2289180764    2.5926838592
 H   -0.1865737865   -0.7389688152    4.1073643740
 H   -1.0468161472   -0.0040808620    2.7001819755
 H   -0.2840535588   -2.4831264942    1.7837449185
 H    3.1669279484   -0.7709259323    2.4529376426
 H    2.4064519989   -0.7658797372    4.0695910757