17

 O    0.0309390696    1.4036208986    0.0375542542
 C    0.0904314921   -0.0121804122   -0.0367466915
 C   -1.3490826623   -0.5023650189    0.0580281767
 C   -2.1877806508    0.0315911288   -1.1161881799
 O   -3.3826965045   -0.0714017645   -1.1871181500
 C   -1.4404904380   -2.0249620129    0.0834905840
 O   -0.5405759683   -2.7284083104   -0.3252540758
 C   -2.7065054471   -2.6465492614    0.6385582496
 O   -2.7016215366   -4.0359720405    0.5040003481
 H    0.9143835252    1.7553095649   -0.1069575866
 H    0.5301478887   -0.3569066889   -0.9834765712
 H    0.6893358324   -0.4440190847    0.7763669805
 H   -1.8230415296   -0.1079052562    0.9650879409
 H   -1.5938840606    0.5179915771   -1.9167595474
 H   -2.7817356622   -2.3380663640    1.6973126756
 H   -3.5672473062   -2.1899440655    0.1271097600
 H   -1.8198981320   -4.2617236194    0.1702718128