20

 C   -0.0228705202    1.3457252546    0.1455669397
 O   -0.0320030095   -0.0603688180    0.1503085967
 C   -1.3116539407   -0.6046812134   -0.0948285291
 C   -1.2153575955   -2.1136338624   -0.0327220440
 C   -0.9553259866   -2.7852211036    1.3444026624
 C   -1.9569112917   -3.8873323589    0.9496049220
 O   -2.7918394647   -4.3109657046    2.0016492715
 C   -2.5318979832   -2.9333660260   -0.1366996010
 H    1.0022571047    1.6689726885    0.3433025910
 H   -0.3427042920    1.7550999889   -0.8264854065
 H   -0.6826741988    1.7627882613    0.9234739493
 H   -2.0346864878   -0.2396208495    0.6565497219
 H   -1.6846703220   -0.2819089887   -1.0838262568
 H   -0.4829488907   -2.4523045027   -0.7722598291
 H    0.0640699134   -3.0779888296    1.6005443816
 H   -1.3726344064   -2.1854803652    2.1594372672
 H   -1.4417993100   -4.7397748804    0.4830243463
 H   -3.3636383170   -5.0117029558    1.6724455657
 H   -3.3803265586   -2.3771667282    0.2759920870
 H   -2.8103832227   -3.3504365462   -1.1078862658