20

 N    0.3526112212    0.5304140502    1.0321441453
 C    0.1928498966   -0.4083837266    0.0473236353
 O    1.1253995114   -0.7478043011   -0.6609465818
 C   -1.1908016297   -0.9933225401   -0.1123152591
 C   -2.3731078885   -0.3871871189    0.6252030587
 C   -2.7949462789    0.9872194224    0.1066363144
 O   -3.8924583356    1.4182849297    0.8987196848
 C   -1.4455908026   -1.6120979930   -1.4775285930
 C   -1.1680014205   -2.5064502921   -0.3140789012
 H    1.3000494507    0.8115134176    1.2285862005
 H   -0.3347386219    0.6673316735    1.7521899418
 H   -3.2343383523   -1.0574917430    0.5316777749
 H   -2.1806945938   -0.3157166684    1.7043907665
 H   -1.9543594282    1.6941971756    0.1685349067
 H   -3.0718684177    0.9044893560   -0.9555790427
 H   -4.1876529711    2.2705323491    0.5655843372
 H   -2.4600202239   -1.5568842999   -1.8574574814
 H   -0.6570855680   -1.4894582070   -2.2092447812
 H   -0.1959315518   -2.9826976671   -0.2741960950
 H   -1.9849314655   -3.0706677968    0.1223388393