18

 C   -0.1321850512    1.5957882303    0.0394087337
 C    0.0777820285    0.0870458608    0.0310973586
 C    1.1578548520   -0.5461575905   -0.9145921649
 C    1.7861885155   -1.2829056062    0.2782410920
 C    2.2122464563   -0.2574217483    1.3213762796
 C    0.7649138322   -0.5707370424    1.2342039001
 O    0.1279596688   -1.0310655368    2.3561954468
 C    2.2526900070   -2.6239040700    0.2800551675
 N    2.6020726337   -3.7289128495    0.2759392498
 H    0.8103165579    2.1312602901    0.1920029053
 H   -0.5582035181    1.9361329008   -0.9100200302
 H   -0.8185188968    1.8903410683    0.8399542537
 H   -0.8795393457   -0.4181642392   -0.1458066393
 H    0.7365705555   -1.2135338231   -1.6671495474
 H    1.8257657364    0.1688183634   -1.4051937751
 H    2.6930237305   -0.6816440340    2.1961417702
 H    2.6235729438    0.6926824028    0.9884020033
 H   -0.6258242661   -1.5699226764    2.0883436862