25

 C   -0.0980165582    1.5704516348    0.0980832052
 C   -0.0201560765    0.0327778603    0.0249822934
 C    0.7374945432   -0.4891025859    1.2647026666
 C   -1.4552093188   -0.5367226607    0.0759836807
 C    0.7160571838   -0.4529934670   -1.2736130648
 C    2.2042499659   -0.0529858936   -1.3218757512
 O    0.6280310307   -1.8799271715   -1.2728270530
 C    0.0321053544    0.0510475775   -2.5627019000
 O    0.6202363640   -0.6768129792   -3.6453996461
 H    0.8908233396    2.0380792337    0.0936945564
 H   -0.6785064620    1.9960402944   -0.7269611727
 H   -0.5942857153    1.8685047352    1.0278541086
 H    0.1638978585   -0.2701687357    2.1714179317
 H    0.8835688901   -1.5701237504    1.2039098677
 H    1.7167892870   -0.0153641968    1.3764993668
 H   -2.1019093363   -0.1084116198   -0.6962987178
 H   -1.4480329649   -1.6207985809   -0.0470048283
 H   -1.9123082355   -0.2980094134    1.0420192753
 H    2.7623823116   -0.5601735919   -0.5337947642
 H    2.6256159819   -0.3543865272   -2.2843892210
 H    2.3494614210    1.0264589188   -1.2193430754
 H    0.8048575238   -2.1466120180   -2.1843124132
 H   -1.0452665545   -0.1412059126   -2.5218778544
 H    0.1929723092    1.1290560205   -2.6941035878
 H    0.0487969575   -0.5964589807   -4.4132056127