17

 O   -0.2597622006    1.3785044363    0.2536412033
 C   -0.0036543748   -0.0011556659    0.0052562804
 C    0.7103406333   -0.6616048866    1.2067971725
 C   -0.4237440516   -0.7976816240    2.2312753566
 C   -1.6239811279   -1.2724539478    1.3841513884
 C   -1.3874253353   -0.7016587907   -0.0418845785
 C    0.7586123739   -0.1467631053   -1.2499674084
 N    1.3799426172   -0.2449235800   -2.2197788752
 H    0.5861216133    1.8330832685    0.3423097383
 H    1.0885031164   -1.6461021006    0.9085812024
 H    1.5633992180   -0.0674253220    1.5484706653
 H   -0.1772967610   -1.4842004481    3.0446903442
 H   -0.6331999479    0.1818038992    2.6705524534
 H   -1.6491802904   -2.3659094784    1.3470590752
 H   -2.5785235914   -0.9464685285    1.8032038510
 H   -2.1307209792    0.0406150282   -0.3382471624
 H   -1.3884194322   -1.4910768641   -0.7960855864