21

 C    0.0245950956    1.5722462781    0.0712998349
 C    0.0890190508    0.0717503667    0.0300874058
 C    0.6012178117   -0.7639730341   -1.1168769029
 C    2.0950730019   -0.9409881000   -1.0410028400
 C    1.2269289590   -1.7590223615   -0.1226590020
 C    0.7246564496   -0.9329773552    1.0373046640
 C    1.4631522314   -0.6886000787    2.3230308923
 C   -0.7740710576   -0.8118388832    0.9180003511
 O   -1.3891606104   -0.2105309913    2.0224075560
 H    0.9934018834    2.0230397583   -0.1698319685
 H   -0.7028567753    1.9563994667   -0.6556257090
 H   -0.2746403986    1.9237035162    1.0627442400
 H    0.0443272403   -1.0036211668   -2.0168929533
 H    2.5394801553   -1.4887907507   -1.8669283254
 H    2.7237300534   -0.1481510928   -0.6440076157
 H    1.1997634528   -2.8421959017   -0.1779328315
 H    2.4744082209   -0.3114358828    2.1356054671
 H    0.9325172634    0.0320845973    2.9490982323
 H    1.5588417818   -1.6181541954    2.8975212766
 H   -1.3475674720   -1.6290926853    0.4725847742
 H   -2.1680649675    0.2616251163    1.7103446339