20

 C    0.2125010545    1.2889389287    0.5152353620
 C    1.4856847241    1.5646902904   -0.3402674414
 C    1.3717324088    0.1311884358   -0.8684347742
 C   -0.0534339836   -0.0023544644   -0.3167986576
 N    1.9138457262   -0.3478183288   -2.1420203439
 C    2.4005783557   -0.9243800297   -0.8944342185
 C    3.8548055956   -0.9421558440   -0.4384500930
 O    3.6850968494   -2.2821393258    0.0831186932
 C    2.3287710802   -2.3671187320   -0.4013297065
 H    0.4512657600    1.0660317349    1.5575562786
 H   -0.5675478988    2.0516457347    0.4914864047
 H    1.3162397143    2.3018216151   -1.1303606956
 H    2.4015709969    1.8286307574    0.1949205947
 H   -0.2976457548   -0.9158423181    0.2334525829
 H   -0.8116308501    0.1507827121   -1.0920455000
 H    1.2595631004   -0.9775294542   -2.6044382901
 H    4.5895032715   -0.9010678946   -1.2522254754
 H    4.1367876632   -0.2282595740    0.3458738829
 H    1.6120344977   -2.5788727402    0.4034216590
 H    2.2174147188   -3.1263573834   -1.1888000919