17

 C    0.0335894832    1.4284221797    0.0477599149
 N   -0.0707291875   -0.0162342107    0.0920775851
 C   -1.2599394990   -0.6542579952    0.0232066746
 N   -2.4305381676   -0.1181788486    0.0751933119
 C   -3.4566260719   -1.1680249381   -0.0584450650
 C   -2.7485333367   -2.5316244597    0.0557854600
 O   -3.1915008322   -3.4903841041   -0.8731525571
 C   -1.2901849842   -2.1422299602   -0.1493375231
 O   -0.3750764187   -2.8728415202   -0.4475787493
 H    1.0603887828    1.7211125838    0.2756092747
 H   -0.2466956687    1.8367607431   -0.9323730681
 H   -0.6348230620    1.8655232362    0.7938911826
 H    0.7308950942   -0.5790774621   -0.1465422397
 H   -4.2309071010   -1.0224286383    0.7004322808
 H   -3.9414964552   -1.0950045870   -1.0390087349
 H   -2.8367280252   -2.9042198278    1.0925253725
 H   -2.4536708003   -4.0977539508   -1.0181881298