16

 O   -0.0640516697   -0.0363327012   -0.0302697150
 C    0.0219940711    1.1533888936    0.0069202065
 O   -1.0850863363    1.9652535485    0.1870514299
 C   -0.7957284207    3.4001637637    0.1176508052
 C    0.5863271227    3.4389520898   -0.5331712009
 N    1.9864370069    3.8851350049    0.0294500378
 C    1.6867153342    2.9064423517    1.1755452799
 C    1.1730816843    2.1233888548   -0.0641088284
 C    2.4892352395    2.6158988192   -0.7181819696
 H   -1.5748768206    3.8454403477   -0.5033208281
 H   -0.8650193401    3.8214445615    1.1227534413
 H    0.5305302768    3.6135785359   -1.6102089693
 H    2.5827317455    2.5216548894    1.6661197395
 H    0.9740483618    3.2784445772    1.9109645153
 H    2.5053071008    2.7225101066   -1.8045446650
 H    3.4365178839    2.2417733867   -0.3266799891