21

 C   -0.2495480793    1.5218325742   -0.0655166675
 C    0.0552713759    0.0341237808   -0.0072063648
 O    0.8113160399   -0.3840765633   -1.1620328014
 C    1.8933731201   -1.1758705970   -0.6413449724
 C    2.3071305957   -2.2244570873   -1.6395410548
 C    2.9652437182   -0.1958076368   -0.1077666802
 C    2.2842164781    0.2813884818    1.2087136723
 C    0.9524434777   -0.4943997082    1.1342605170
 O    1.3632024669   -1.7418207975    0.5509479363
 H    0.6618139633    2.1200294532   -0.1412169648
 H   -0.8666215378    1.7407556576   -0.9414804344
 H   -0.8046339347    1.8370456769    0.8249259778
 H   -0.8893782620   -0.5280409565    0.0107582573
 H    2.6762033247   -1.7461388214   -2.5502700510
 H    3.1003914847   -2.8507883367   -1.2241097690
 H    1.4500402396   -2.8512976428   -1.8949015718
 H    3.9108691167   -0.7098079088    0.0834303233
 H    3.1437634566    0.6097757567   -0.8224830048
 H    2.8470759053   -0.0374670532    2.0886365934
 H    2.1543511662    1.3633679817    1.2687420021
 H    0.4406640641   -0.6681884935    2.0803590577