21

 C   -0.0917850037    1.4939828078   -0.0432465971
 C   -0.0236235884    0.0415985206   -0.0102671182
 C    0.0499629865   -1.1637838159    0.0146788289
 C    0.0707938340   -2.5783761304    0.0537508616
 C    1.1468854224   -3.3761326672   -0.0330393385
 C    0.7943831919   -4.8441484738   -0.0040026424
 C    1.7163038889   -5.7034055493    0.8689697851
 C   -0.6836361676   -4.8211470005    0.4704392287
 C   -1.2071658621   -3.4029641423    0.1500720284
 H    0.4749229736    1.9380103157    0.7833584927
 H    0.3227026480    1.8919891891   -0.9767227690
 H   -1.1258277712    1.8471879907    0.0372651433
 H    2.1645336615   -3.0199481928   -0.1502314613
 H    0.8470387957   -5.2386170434   -1.0320257454
 H    1.7177274718   -5.3449756347    1.9042100191
 H    1.3890358010   -6.7486509093    0.8735940136
 H    2.7484429065   -5.6794003536    0.5034245302
 H   -1.2858293445   -5.6116155000    0.0144715870
 H   -0.7066014795   -4.9805026344    1.5546613379
 H   -1.8952370454   -3.0175376589    0.9090018890
 H   -1.7462190695   -3.3673882074   -0.8061508135