20

 C   -0.0477774774    1.6166245523    0.0180185160
 C    0.0077430952    0.0847548319    0.0289001509
 C    0.7282163690   -0.5220435990   -1.2063483495
 C    1.4904911940   -1.7697710102   -0.7004222734
 C    1.5873363045   -1.5066602230    0.7858564378
 N    2.3906512826   -2.2654555660    1.6449622621
 C    3.2037357378   -3.3244201416    1.3356312037
 O    3.3775636823   -3.8059255221    0.2394955132
 C    0.7897588124   -0.5065038741    1.1791631471
 H    0.9613834014    2.0423248610   -0.0098119479
 H   -0.5942394842    1.9827601645   -0.8579098979
 H   -0.5520583849    2.0044790141    0.9098405536
 H   -1.0298769970   -0.2840270912    0.0704815601
 H    0.0408801786   -0.7516637635   -2.0246310432
 H    1.4494273408    0.2104127733   -1.5863088877
 H    0.9405584020   -2.7013583921   -0.8825165243
 H    2.4660580256   -1.9032430072   -1.1700652490
 H    2.3626732438   -2.0072943641    2.6207596982
 H    3.7048648631   -3.7063263976    2.2474839988
 H    0.6680990903   -0.1736045252    2.2053537215