18

 C   -0.9802212708   -0.0705493552    1.2276111645
 C   -0.3057190381    0.2979275833    0.3033836210
 C    0.5205460041    0.7564027094   -0.8062046406
 C    1.7243309767    1.5628632727   -0.3814303408
 C    2.5147065091    1.3718797052    0.8775131722
 C    1.9010342748    2.7187646652    0.5734127430
 C    2.6230804284    3.4499164194   -0.5722823315
 C    3.7666070665    2.7265201857   -1.1617843097
 N    2.3978855983    2.3075552368   -1.5306674443
 H   -1.5859800317   -0.4022922355    2.0340920188
 H    0.8643735872   -0.1053620451   -1.3961095945
 H   -0.0801427201    1.3679694195   -1.4913232228
 H    1.9619271206    0.8179670030    1.6297396453
 H    3.5842201254    1.1967536516    0.9106785197
 H    1.1754004376    3.1911510088    1.2216317320
 H    2.3644228634    4.4632598561   -0.8629154329
 H    4.2697280494    3.2083280237   -1.9957639037
 H    4.4114672991    2.0828891955   -0.5754322059