19

 C   -0.2131742762    1.3174631720    0.0952953189
 O    0.3298714078    0.0307825686   -0.1042571186
 C    0.8648056207   -0.5305717782    1.0673098022
 C   -0.1727957998   -1.2571369846    1.9932891441
 C   -0.1582564899   -2.3944926266    0.9085974732
 C    1.3548626466   -1.9781671679    0.8077298211
 C    1.8306197582   -2.4136113520    2.2093626730
 O    2.0755359384   -1.3549214861    3.1525468234
 C    0.7467009656   -1.9010107313    3.0502292036
 H    0.5367499267    2.0131829074    0.5017723159
 H   -0.5435022014    1.6829246732   -0.8799160361
 H   -1.0753287076    1.3039195527    0.7784084097
 H    1.5574110327    0.1637575757    1.5491786879
 H   -1.0909374881   -0.7776850244    2.3310923512
 H   -0.3794718955   -3.4115901765    1.2444773154
 H   -0.7292862872   -2.1433714036    0.0157304678
 H    1.9756746980   -2.2156663610   -0.0550782973
 H    2.3755761402   -3.3367032632    2.3742324900
 H    0.3597799509   -2.3803954645    3.9431337747