19

 C   -0.0997606818    1.6355259230    0.0779501305
 C   -0.2526271619    0.1736069456   -0.3141450720
 C   -0.0122168148   -0.9060994454    0.7069780283
 C   -1.4124922264   -0.6332573439    0.2097757699
 C    1.3231043585    2.1121405377    0.0368962498
 N    2.0062319344    2.3019612005    1.1657299053
 N    3.2321470389    2.6914669306    0.7618358195
 C    3.3511054442    2.7591292243   -0.5853022724
 C    2.1273870932    2.3886017052   -1.0972145886
 H   -0.7163159766    2.2567722920   -0.5844611078
 H   -0.4784199372    1.7792514902    1.0952251229
 H    0.0665948998   -0.0517412634   -1.3285541848
 H    0.4774775555   -1.8207782560    0.3914262771
 H    0.2406735389   -0.5922955493    1.7143651212
 H   -2.1048800944   -0.1434920681    0.8871607992
 H   -1.8778645092   -1.3596319022   -0.4476943917
 H    3.9274067877    2.9075106026    1.4551192891
 H    4.2713374452    3.0618284900   -1.0598323238
 H    1.8503853060    2.3280411464   -2.1374949316