21

 C    0.0028902753    1.6185986667    0.1776106552
 C   -0.0121290492    0.1027547853   -0.0039509394
 C    0.9403296002   -0.4191855868   -1.1108626097
 O    1.8500605725   -0.9638987843   -0.1367232545
 C    0.9456552398   -0.6669068815    0.9445771849
 C   -1.4370242264   -0.4209904285   -0.0310701273
 C   -2.3073091462   -0.1777143793   -1.2881065753
 C   -2.4761337595   -1.7087646659   -1.2850468901
 O   -1.5173179123   -1.8546510514   -0.2153319848
 H    1.0301502397    1.9933310454    0.2159917905
 H   -0.5071736594    2.1249170436   -0.6500072236
 H   -0.4965865085    1.9115605157    1.1083128968
 H    0.5151104526   -1.2030240895   -1.7496238891
 H    1.4161506385    0.3457986191   -1.7371952142
 H    1.4234535514   -0.0716944694    1.7327969046
 H    0.5185129686   -1.5782370328    1.3798977380
 H   -1.9440167174   -0.1294793011    0.9022278169
 H   -3.2106507615    0.4173300802   -1.1501323699
 H   -1.7485326366    0.2086743939   -2.1435501726
 H   -3.4719730343   -2.0605212171   -0.9863870099
 H   -2.1655033672   -2.2448234524   -2.1885516066