17

 O    0.0686573433    1.3692106197    0.1033657485
 C    0.0045173559   -0.0242736516   -0.0187865473
 C   -0.5913287968   -0.7954697602    1.1428804101
 C   -1.4004029039   -0.5587064259   -0.1109589085
 C    1.0959666366   -0.5966361627   -0.8398348936
 C    1.9917098405    0.0370815194   -1.6814677197
 C    2.8007365934   -0.9987855729   -2.1952923095
 N    2.4494887812   -2.1887779205   -1.7208243324
 N    1.4132433184   -1.9180282943   -0.8973262988
 H    0.8875541930    1.5838717678    0.5656119975
 H   -0.2310830663   -1.7954105204    1.3629281634
 H   -0.8446337098   -0.2067520650    2.0169291256
 H   -2.1923904996    0.1796415599   -0.0659759628
 H   -1.5825417178   -1.3906328969   -0.7818189647
 H    2.0282221127    1.0915934760   -1.8974484974
 H    3.6232867785   -0.9238620108   -2.8916105615
 H    0.9820395809   -2.6796568215   -0.4024561091