14

 O   -0.1609055650    1.3449108879   -0.3021987228
 C    0.0675649132    0.0297332225   -0.0451664646
 C    1.2414502387   -0.6079179779    0.0579058735
 N    1.2493483422   -1.9781319169    0.3304408465
 C    0.1252119285   -2.7524300837    0.5075421241
 N    0.2045762287   -4.0022186384    0.7547457009
 C   -1.1990813824   -2.0244452478    0.3895208795
 O   -2.2594939227   -2.5985698120    0.5254019926
 N   -1.1167546296   -0.6768570006    0.1194383033
 H    0.6806007655    1.7994346906   -0.4096681463
 H    2.1976708959   -0.1213951336   -0.0580985981
 H    2.1281750023   -2.4653988204    0.4094451717
 H   -0.7448260738   -4.3654513538    0.8463784868
 H   -1.9902998315   -0.1744736559    0.0370586130