19

 C   -0.1734138813    1.5067081824   -0.0051803338
 C    0.1377510465    0.0370972975   -0.0079422851
 O   -0.6143581050   -0.7668569200    0.9514833343
 C    0.8029264568   -0.7147782135    1.0933799838
 C    1.5750300945   -1.8559097271    0.4582851013
 C    1.1168319812   -3.3569342946    0.3440898563
 C    1.2837189855   -3.2652547040   -1.2203472882
 C    1.1788519861   -1.7744553765   -0.9978455598
 C    0.3593827013   -0.7552224754   -1.2680022354
 H    0.6258534045    2.0709313813   -0.4969626564
 H   -1.1052264142    1.7059005009   -0.5463120460
 H   -0.2911303313    1.8760736533    1.0163658673
 H    1.1608709740   -0.2218472589    1.9942065402
 H    2.6490960527   -1.7817204595    0.6581007963
 H    1.7287594656   -4.0986766260    0.8612874294
 H    0.0679675953   -3.4618808948    0.6248127332
 H    2.2807496427   -3.5968126982   -1.5282485311
 H    0.5320703785   -3.7433493707   -1.8516889031
 H   -0.2371309735   -0.6130074763   -2.1617537134