16

 O   -0.0265016992    1.4172107721    0.0964294202
 C   -0.0359888553    0.0203987311   -0.0103611558
 C   -1.4538581314   -0.5408797936    0.0557056652
 C   -1.3723752439   -2.0520463090   -0.1645135701
 C   -0.7474847765   -2.3437683514   -1.5224884377
 O    0.4910007720   -1.6401589777   -1.7729098058
 C    0.7025021502   -0.4063260429   -1.2835227157
 O    1.5200880995    0.3195755194   -1.7914605311
 H    0.7144754261    1.7132854009   -0.4536570914
 H    0.5463013650   -0.4391233545    0.8124436391
 H   -1.9026206489   -0.2928484749    1.0215382339
 H   -2.0666848273   -0.0653397923   -0.7196258592
 H   -0.7748917696   -2.5161838147    0.6294854204
 H   -2.3632008147   -2.5169209101   -0.1338579487
 H   -0.4987070573   -3.4008742960   -1.6387502015
 H   -1.4397842188   -2.0678133265   -2.3277481816