19

 C    0.0360018898    1.5037875000   -0.4142737500
 C    0.0835671724    0.0357488566   -0.0404453874
 C    1.3507834478   -0.8190319636   -0.0185212080
 C    2.4853805149   -0.0575850969    0.5975320036
 O    3.6372769805    0.0919703243    0.3003275969
 C    1.6747727719    0.2801667652    1.8740732498
 C    0.5136938301   -0.5293078185    1.2699049298
 C   -0.3060458841   -1.5040818565    2.0560475315
 O    0.5727093543   -2.3547681710    2.7783258296
 H    0.8734886484    2.0708771919   -0.0018825871
 H    0.0665592467    1.6186222436   -1.5024701723
 H   -0.8910484520    1.9644563943   -0.0556666118
 H   -0.7343454309   -0.5348855255   -0.4808390594
 H    1.4322306486   -1.7174061651   -0.6187884581
 H    2.1209994893   -0.2325517318    2.7301961138
 H    1.5037920096    1.3307320459    2.1241673622
 H   -0.9723091303   -0.9532499109    2.7405722115
 H   -0.9494688543   -2.0787130800    1.3699008926
 H    0.0515113472   -2.8675705923    3.4028344128