21

 C   -0.0055109461    1.5153095531   -0.1082270888
 C   -0.0178026585   -0.0131266806   -0.0290282794
 C   -1.4261573670   -0.5876103682    0.1341883634
 O   -2.2512193772   -0.1697097020   -0.9848466475
 C   -3.0265062489   -1.2762275569   -1.3904613892
 C   -2.8104411225   -2.0637374738   -2.7387249862
 C   -2.7598726311   -3.3919927241   -1.8878534159
 C   -2.4407002514   -2.4767203713   -0.7256518392
 C   -1.4671816070   -2.1129314787    0.0988135790
 H    1.0120881380    1.8942209817   -0.2429905156
 H   -0.6159053070    1.8589202784   -0.9470659107
 H   -0.4113398154    1.9616853934    0.8065539523
 H    0.4283203565   -0.4428051608   -0.9340972166
 H    0.5897595853   -0.3532294279    0.8196759242
 H   -1.8681962495   -0.1754481410    1.0583687871
 H   -4.0959419742   -1.0853286499   -1.2201143184
 H   -3.5930759641   -1.9863512547   -3.4970500576
 H   -1.8354825793   -1.8302996855   -3.1700309799
 H   -3.7465941351   -3.8605591083   -1.8233285422
 H   -2.0210691777   -4.1500431884   -2.1526779895
 H   -0.7049926879   -2.7257531143    0.5639707007