18

 O    0.0486155878    1.4462736636   -0.0317026204
 C    0.0032016151    0.0279685186   -0.0493764326
 C    0.8542758773   -0.5626524669    1.1156282985
 N    0.4857980727   -1.8860305403    1.6380177515
 C   -0.5047941960   -2.3931360758    1.0635994022
 O   -1.2847462518   -3.4559839437    1.4536828397
 C   -2.3950321187   -2.9316387070    0.6410368454
 C   -1.4313640055   -1.9170016196   -0.0207466445
 C   -1.4762361051   -0.3954358173    0.0198101418
 H    0.9687890415    1.7198872233   -0.1055869479
 H    0.4041195221   -0.3480639284   -1.0058810678
 H    1.9115395610   -0.5762242989    0.8199874253
 H    0.7776777137    0.1418276455    1.9543087073
 H   -2.8200792626   -3.7071660433    0.0014739072
 H   -3.1618279530   -2.4986615176    1.2895037879
 H   -1.1244737768   -2.2741907576   -1.0088334161
 H   -1.9162371565   -0.0395037765    0.9585144668
 H   -2.0301335551    0.0565485020   -0.8072714343