19

 C   -0.0987101481    1.5497748300   -0.0390493133
 C    0.0696645761    0.0672887349   -0.0665808945
 C    0.0285090655   -0.8316987878   -1.1274444113
 C    0.2427366735   -2.1693289598   -0.6505502616
 N    0.3854390558   -3.3210140414   -1.4541239659
 C    0.3584053698   -2.0405584199    0.7151725013
 C    0.8665067320   -2.4193644042    2.0968614988
 C    0.7998354221   -0.8735132594    2.3946173561
 N    0.2274783704   -0.7093050756    1.0452876765
 H    0.7406520263    2.0504914596    0.4603381848
 H   -0.1530585665    1.9381397851   -1.0589883118
 H   -1.0135904390    1.8572734195    0.4831059668
 H   -0.1755982296   -0.5614087195   -2.1548814506
 H   -0.1473104446   -3.2469614577   -2.3120703968
 H    0.0899670354   -4.1604666621   -0.9717446466
 H    0.2056515187   -3.0316349547    2.7186885092
 H    1.8765220541   -2.8368955085    2.1418615371
 H    0.1369836275   -0.5563599253    3.2050232359
 H    1.7792654506   -0.4006677029    2.5157044658