16

 O    1.3496398196    0.7213605985    0.2497558914
 C    0.2566436052   -0.1064784681   -0.0275280315
 C    0.5815062158   -1.3180450826   -0.9022213635
 C    0.6318046482   -1.0050822125   -2.3808252623
 O    0.0953315774   -1.6448476829   -3.2483192885
 C    1.4033388508    0.2115374416   -2.7473564315
 N    1.9934460026    1.1712557173   -3.0105182088
 C   -0.6979059178   -0.2782288510    1.1160237714
 C   -1.1165416515    0.5206321841   -0.1011962228
 H    1.5179443873    1.2902481249   -0.5109249838
 H    1.5637635475   -1.7006539567   -0.5955590613
 H   -0.1521457080   -2.1186309875   -0.7810104253
 H   -1.1493789265   -1.2500811663    1.2803714918
 H   -0.4553946737    0.2752651659    2.0152560583
 H   -1.1665927607    1.5984273200    0.0011115603
 H   -1.8525379961    0.0911779054   -0.7730524140