17

 N    0.0337068910   -0.7276309333   -1.2690428295
 C   -0.0114945274    0.2719728025   -0.6910241944
 C   -0.0424247592    1.5313198335    0.0522823613
 C    1.3614476333    2.0714275360    0.2851184351
 N    1.9088258559    2.9399590906   -0.7607674790
 C    1.6523769062    3.5084300775    0.5646206377
 C    0.6260436882    4.5981709699    0.6809466992
 C    0.3725523506    5.5397430774   -0.4193566059
 O   -0.5611911502    4.5033204518   -0.1026796113
 H   -0.6260249566    2.2725966612   -0.4972539731
 H   -0.5457149812    1.3571925311    1.0106011392
 H    2.0392878180    1.3534366319    0.7434198434
 H    2.8986526243    2.7685857306   -0.9082748222
 H    2.5090612904    3.6870092708    1.2150509196
 H    0.4561449285    4.9406960065    1.7028681746
 H    0.0337590172    6.5507771509   -0.2016265605
 H    0.9098253609    5.3970825211   -1.3537222241