19

 C   -0.0322953542    1.4090669133   -0.0722459131
 C    1.3390546007    0.7878703126    0.0879499662
 C    2.0632848319    0.9686023555    1.4059726949
 O    2.7103856244   -0.1900844999    1.9318209566
 C    2.1157662786   -1.4584228596    1.7684110635
 C    0.6102564970   -1.5892604690    2.0156924276
 O   -0.1166924665   -0.4480379884    2.4771016046
 C   -0.3654484381   -0.9143423394    1.1447272381
 C    0.1076095222   -0.0886569285   -0.0085821752
 H   -0.4439203021    1.9064327095    0.7999599639
 H   -0.2971272073    1.8638636324   -1.0200430565
 H    1.9761912968    0.7840987865   -0.7916848848
 H    2.8705213795    1.6979496634    1.2745399630
 H    1.3707455892    1.3626968788    2.1541050393
 H    2.3158230489   -1.8618570086    0.7609506895
 H    2.6439600214   -2.1032043862    2.4785859506
 H    0.3159365259   -2.5257913092    2.4928607373
 H   -1.3508823809   -1.3660823408    1.0203282131
 H   -0.0143783376   -0.6132883623   -0.9536905887