17

 C   -0.1216139115    1.5765298716    0.0023718832
 C    0.0200759090    0.0455765305   -0.0200737488
 C    0.8074128447   -0.5041137169   -1.2283457895
 C    1.9393898889   -1.3609721872   -0.6476274420
 O    2.7487664233   -1.9965836150   -1.2728539277
 C    1.8418309710   -1.2518820449    0.8481260419
 C    0.7848286720   -0.4815344323    1.1682049834
 C    2.7497565327   -1.8906175353    1.7235254565
 C    3.5399991963   -2.4472689374    2.4409989879
 H    0.8608900043    2.0593447613   -0.0228249785
 H   -0.6941213472    1.9233273481   -0.8632232110
 H   -0.6399085765    1.9126507859    0.9062834740
 H   -0.9922199900   -0.3821160537    0.0005235761
 H    0.2012263663   -1.1118066510   -1.9057272201
 H    1.2491654040    0.2960538800   -1.8315101383
 H    0.4895702245   -0.2422034440    2.1846348504
 H    4.2371396683   -2.9393680696    3.0730188325