21

 O   -0.1905247884    0.0425492006   -0.2995181494
 C   -0.0005598919    1.1610279970    0.1105949949
 C    1.3117497631    1.8847832129    0.0637081061
 C    2.5603667575    1.1492105991   -0.4954808608
 C    2.9921206864    2.5286575698   -1.0736910521
 C    1.4844058481    2.8949565151   -1.1255264171
 C    3.6822131376    3.3851754322    0.0009011041
 C    3.1120152909    3.0738512565    1.4056534343
 C    1.6288915470    2.6317901886    1.3774044209
 H   -0.8397169626    1.7564574678    0.5454339980
 H    3.2228591542    0.6421485063    0.2101566466
 H    2.2646089936    0.4461773514   -1.2764492856
 H    3.5421847769    2.5408556375   -2.0173860357
 H    1.0017925741    2.5291800349   -2.0355804880
 H    1.1982068415    3.9363616881   -0.9482021966
 H    4.7625874606    3.2016929905    0.0019817316
 H    3.5484332502    4.4444020934   -0.2516726823
 H    3.6992726918    2.2605765121    1.8432221266
 H    3.2417598274    3.9280985106    2.0769340494
 H    0.9563577800    3.4941748468    1.4650906332
 H    1.4274768221    1.9911651890    2.2443621218