21

 C   -0.5166095785    1.5085482255    0.1363509092
 C   -0.4345524036    0.0718921214   -0.3497861648
 O   -1.2326203734   -0.7362846759    0.5102992046
 C   -1.2385558556   -2.1180823688    0.1782923487
 C   -1.4578941540   -2.9354277784    1.4730780272
 C   -2.8831569188   -3.4172381733    1.3721479738
 C   -3.4245782761   -3.1637233223    0.1836248283
 C   -2.4721852765   -2.4507520610   -0.7473425056
 O   -3.0266076466   -1.2976192541   -1.3552826509
 H    0.1098499740    2.1548576922   -0.4856073168
 H   -1.5453036538    1.8782310130    0.0870247089
 H   -0.1756818207    1.5849207889    1.1727701741
 H   -0.7897017680   -0.0110664353   -1.3854399862
 H    0.6072668076   -0.2857948108   -0.3225573833
 H   -0.2916361725   -2.3761333191   -0.3102667213
 H   -0.7548956948   -3.7758056744    1.5363031857
 H   -1.2767263132   -2.3044728940    2.3499448631
 H   -3.3780204293   -3.9291536614    2.1906378568
 H   -4.4307140399   -3.4182733334   -0.1295126702
 H   -2.1697210841   -3.1001609028   -1.5779377441
 H   -3.0541300223   -0.6336567059   -0.6534853772