16

 C   -0.1404659581    1.4354732329   -0.2197556299
 C    0.0516330069   -0.0506241940    0.0701959736
 C    0.8214419666   -0.2950509691    1.3660585909
 O    1.2321097321    0.5802517423    2.0811035852
 N    0.9984421064   -1.6656380124    1.6329578705
 C    1.6506312020   -2.2484544911    2.7225243571
 O    2.1770366715   -1.6515116095    3.6262486336
 C    1.6241216774   -3.7056845522    2.6444402130
 C    1.6173616808   -4.9075244674    2.6055541489
 H    0.8235228426    1.9418629760   -0.3072158213
 H   -0.6940017869    1.5742715876   -1.1522143578
 H   -0.6914764032    1.9208792096    0.5890218148
 H   -0.9160732647   -0.5652000080    0.1429578770
 H    0.5918842744   -0.5443057049   -0.7489113297
 H    0.6114870647   -2.3152012247    0.9637915758
 H    1.6212462475   -5.9705590049    2.5877047584