15

 O    0.0384755202    1.3751353172    0.6408795662
 C    0.0350487821    0.0809459929    0.0892997416
 C    0.4090739162   -0.9909151521    1.1369447259
 N   -0.9177322149   -1.6803540443    1.0057260799
 C   -1.9335293279   -1.1723671841    1.9853172525
 C   -2.4179416117   -0.1388926795    0.9525272123
 O   -3.2871352241    0.6777548997    0.8998939265
 C   -1.3451651173   -0.6413813422   -0.0221932295
 H   -0.3581006207    1.9844626480    0.0083859035
 H    0.6181321274    0.0333870202   -0.8393190986
 H    1.2345387335   -1.6468135862    0.8496635269
 H    0.6099915492   -0.5726235374    2.1280051432
 H   -2.6849759265   -1.9279470886    2.2403624040
 H   -1.5268720423   -0.7537884292    2.9128046943
 H   -1.6746809432   -0.9763242445   -1.0093581086