16

 N   -0.1007081293    1.3294272892   -0.3541819311
 C   -0.0587048969   -0.0284130252   -0.1037748689
 N   -1.0721081342   -0.8644336166   -0.2308675725
 C   -0.4945650441   -2.0745175371    0.0485633317
 N    0.7942984983   -2.0453048014    0.3384943344
 N    1.0601714109   -0.6960281782    0.2446311005
 N   -1.2519329691   -3.2392471810    0.1019517618
 C   -1.8089422246   -3.7791878445   -1.1352938106
 C   -0.6874208495   -4.4692184470   -0.4331087501
 H    0.4566840726    1.8965711586    0.2697092239
 H   -1.0545805705    1.6606767518   -0.4030661818
 H    2.0027289628   -0.3638955576    0.3510765999
 H   -2.8237988646   -4.1571134639   -1.0588643114
 H   -1.5790862675   -3.2548049468   -2.0589353150
 H    0.3019167936   -4.4082930049   -0.8773969415
 H   -0.8771092379   -5.3607816053    0.1568115808