19

 C    0.2458430587    1.1659203943    0.4534977332
 N   -0.2294916003    0.0964372105   -0.4587404660
 H   -0.3836639992   -0.8938968436    0.0260575185
 H   -1.1228777478    0.3670538514   -0.8687025172
 C    0.6618234946   -0.3580729477   -1.5457716044
 C    1.9793341345   -0.9744515059   -1.1696258208
 C    0.8220785122   -1.8778555347   -1.4547952459
 N    0.0826171891   -2.4132018072   -0.3249840510
 C    0.6639356418   -2.6638332872   -2.7929128892
 O   -0.1292568214   -3.6217434013   -2.6825509656
 O    1.2927582195   -2.1796374929   -3.7430744639
 H    1.1725194414    0.8399041606    0.9237418490
 H    0.4307320860    2.0801318245   -0.1129602863
 H   -0.5109924032    1.3467363620    1.2198331282
 H    0.5194672425    0.1185663301   -2.5061449276
 H    2.7267375263   -0.9362247910   -1.9544079261
 H    2.3524005114   -0.8747543039   -0.1537236058
 H   -0.4956159198   -3.1334492811   -0.7919066413
 H    0.6977274537   -2.8966759068    0.3236751122