20

 C    0.6161939486    1.4682310169    0.0563767669
 C    0.0216433276    0.0539276137    0.0930476400
 C    0.3765144943   -0.8189404907   -1.1499774067
 N    1.3037610029   -1.9006386707   -0.7617880030
 C    2.5334048014   -1.4570739651   -0.1282209574
 C    1.3787803198   -1.8836177036    0.7280415379
 C    0.4893706195   -0.7979263432    1.3068782730
 C    1.4269799549   -3.2204887593    1.3760104050
 O    0.9339483569   -3.4748322776    2.4471730718
 H    1.7107707876    1.4611937180    0.0285370547
 H    0.2691316646    2.0143121786   -0.8272678852
 H    0.3141871339    2.0406457363    0.9397137784
 H   -1.0662325812    0.1659352350    0.1364891385
 H   -0.5198886173   -1.3016722353   -1.5507360585
 H    0.8214840729   -0.2308354406   -1.9598075499
 H    3.3818547848   -2.1236660330   -0.2644390887
 H    2.7875138919   -0.4006008729   -0.1148631522
 H    1.0121278721   -0.1919221280    2.0530877909
 H   -0.3498461655   -1.2746853727    1.8201613848
 H    1.9633177303   -3.9897756558    0.7772996097