25

 C    0.1621232238    1.5544133456    0.1474480444
 C    0.0651322164    0.0274322851    0.0172758045
 C    0.8355308986   -0.6589493560    1.1535746794
 C   -1.3914312077   -0.4710997106   -0.0208269702
 C   -2.2093271078   -0.0074457118   -1.2318923546
 C   -3.6158768637   -0.6164374156   -1.2671875355
 C   -4.4375600795   -0.1603462939   -2.4859899165
 C   -5.8486104964   -0.6982226016   -2.4474445175
 O   -6.3634643006   -1.3621404965   -3.3098188027
 H    1.2076687420    1.8774692615    0.1864453598
 H   -0.3097366345    2.0723887378   -0.6925837118
 H   -0.3242719532    1.8984649035    1.0686185789
 H    0.5397529130   -0.2614356842   -0.9322079157
 H    0.4015772834   -0.4069333040    2.1287759399
 H    0.8111918455   -1.7490605364    1.0515086233
 H    1.8847880642   -0.3461556678    1.1681619088
 H   -1.3835937173   -1.5694551959   -0.0042282686
 H   -1.8999383082   -0.1595727611    0.9034507700
 H   -2.2962495368    1.0862553055   -1.2351086494
 H   -1.6771514340   -0.2743037521   -2.1552835564
 H   -3.5419339386   -1.7115078871   -1.2722578527
 H   -4.1522928698   -0.3503221725   -0.3461963703
 H   -4.5024263504    0.9379881874   -2.4830581498
 H   -3.9707281469   -0.4695881183   -3.4259484683
 H   -6.4098725216   -0.4357488509   -1.5183696090