15

 C   -0.0173379337    1.3791321162    0.0057278771
 O    0.0256438364   -0.0499153930    0.0467140526
 C    0.6418713527   -0.6176627132    1.0814313756
 N    1.1858314005    0.1634166206    2.0224603707
 C    1.7751959565   -0.5243541511    3.0030648106
 N    1.8600919487   -1.8392707213    3.1175769687
 C    1.2663282818   -2.5064754429    2.1009556414
 N    1.2969870223   -3.8539446737    2.1565435046
 N    0.6455073223   -1.9460259756    1.0561365569
 H    0.9900688266    1.8014255286   -0.0235829330
 H   -0.5587599195    1.6224186860   -0.9091051518
 H   -0.5404946628    1.7811483990    0.8767806715
 H    2.2367366162    0.0643232398    3.7941279215
 H    1.8276575037   -4.2990246248    2.8834797378
 H    0.9402404182   -4.3845391547    1.3820187659