15

 N   -0.0464483533    1.3677543151    0.2033115931
 C   -0.0209622736    0.0102195847    0.0669915573
 N   -1.0781320231   -0.7189595797   -0.0017385793
 C   -0.7035328582   -2.1289681775   -0.0828019713
 C    0.8373634897   -2.2210281298    0.0772686971
 C    1.2515284262   -0.7697854815    0.0273432251
 N    2.4757222100   -0.4225052861   -0.0679734985
 O    2.6545898194    0.9739819158   -0.1084438670
 H    0.7924212491    1.8708942481   -0.0291545947
 H   -0.9325493248    1.8101019519    0.0172253780
 H   -1.2322128174   -2.6981155373    0.6902671507
 H   -1.0343458438   -2.5376479723   -1.0464188768
 H    1.1161354327   -2.6610360861    1.0404135297
 H    1.3247153813   -2.8115332168   -0.7017550701
 H    3.6101386957    1.0546827715   -0.1881055231