19

 C    0.2812160450    1.4954307988   -0.0434449408
 C   -0.1065125398    0.0311099481    0.0718948621
 O   -0.4387017779   -0.4766592008    1.1164001235
 C   -0.0909765916   -0.7443244820   -1.2369545390
 O   -0.1195767316   -2.1774512135   -1.1038513765
 C   -1.3055661955   -2.2462355456   -1.9025457914
 C   -2.4377187848   -1.5338458524   -1.2333900964
 C   -1.4156575108   -0.7446845817   -2.0380664607
 C   -1.7376142368    0.1571840127   -3.1913960146
 H    1.3614557837    1.5770167462   -0.2136936517
 H   -0.2122702430    1.9715472209   -0.8981265375
 H    0.0230919636    2.0194731713    0.8773682809
 H    0.7583750598   -0.4338568461   -1.8614631936
 H   -1.3861651577   -3.0561471870   -2.6182714261
 H   -3.4022309745   -1.6253713101   -1.7246172696
 H   -2.4639377012   -1.4815445712   -0.1495066083
 H   -2.0147633101    1.1634156194   -2.8537905223
 H   -0.8869828060    0.2544061861   -3.8755360599
 H   -2.5839859809   -0.2344487030   -3.7644416880