18

 C   -0.0049580670    1.5808545476   -0.0274858568
 C    0.0608017092    0.0523297193    0.0250935030
 C    0.7987925320   -0.5987976196   -1.1709056251
 C    1.5501020162   -1.8235490231   -0.6134757817
 O    2.8037567546   -1.9410298361   -1.2716962086
 C    1.6479930543   -1.5151107904    0.8640287306
 C    0.8405792344   -0.5065162984    1.2125006713
 C    0.6642685085   -0.0104083563    2.5343052673
 N    0.4933023572    0.4184387750    3.5970439367
 H    1.0000281928    2.0131195132   -0.0739612499
 H   -0.5566461392    1.9098800369   -0.9135035636
 H   -0.5087313636    1.9874698139    0.8545212824
 H   -0.9666314756   -0.3334610006    0.0828354145
 H    0.1309349421   -0.8500460957   -1.9972918238
 H    1.5601190651    0.0902508860   -1.5517487332
 H    0.9647112504   -2.7476016721   -0.7551801353
 H    3.1891509367   -2.7940200244   -1.0479071612
 H    2.2739920419   -2.0785841451    1.5467455933