17

 O   -0.7618248150    1.1292597459   -1.3911397780
 C   -0.2822691272    0.2349198570   -0.4068746049
 C   -1.3654885060   -0.3452606501    0.4946607859
 O   -2.1588374117   -1.3371847595   -0.1736519106
 C   -3.2565798823   -0.9266725106   -0.8336757981
 C   -3.7833167123    0.2987796219   -1.2063572818
 C   -4.9790385915   -0.0463178554   -1.8827188736
 N   -5.1823128682   -1.3544572342   -1.9359694795
 N   -4.1127243930   -1.8756069950   -1.2803894019
 H   -1.3360082372    0.6420258666   -1.9925549920
 H    0.2877775037   -0.5951180728   -0.8516732240
 H    0.4080470298    0.8111411619    0.2201550860
 H   -0.8971218121   -0.8735709227    1.3310822559
 H   -2.0124999550    0.4454619511    0.8906372755
 H   -3.3670466977    1.2743011602   -1.0267578489
 H   -5.6956033672    0.6233534793   -2.3362400273
 H   -4.0182812472   -2.8707655635   -1.1703076025