19

 C   -0.0138304989    1.5307924628   -0.0820951626
 C    0.0543089391    0.0144321375   -0.0098902375
 O    0.6780213119   -0.4513156107   -1.1922436906
 C    0.7184724035   -1.8690676479   -1.2748679736
 C    1.4800879038   -2.4602883138   -0.0889545195
 N    0.9505414522   -1.9997993697    1.2021874604
 C    0.8006559837   -0.5382074395    1.2368657806
 C    2.1289570157    0.0846581161    1.3810884325
 N    3.1600899806    0.5935884449    1.4915367268
 H    0.9901772447    1.9586448939   -0.1403258224
 H   -0.5714524771    1.8322111418   -0.9721129485
 H   -0.5180634298    1.9383520643    0.7996315464
 H   -0.9678148129   -0.4033533852    0.0524428547
 H   -0.3091785920   -2.2727614283   -1.3018803509
 H    1.2055367310   -2.1088742529   -2.2248475950
 H    1.4446743377   -3.5539152027   -0.1096855460
 H    2.5326087204   -2.1601571959   -0.1480802847
 H    0.0364627776   -2.4125845155    1.3650752243
 H    0.2236779788   -0.2796444291    2.1327604456