18

 N   -0.1207758072    1.3858948428    0.1105799677
 C    0.0310772297   -0.0259068225    0.0031811423
 C    0.6915423081   -0.9465082365   -1.0860712216
 C    0.0960450530   -1.9060735827   -0.0197376222
 C    0.6785219640   -0.9579884294    1.0674333257
 C   -1.1945640574   -1.0115194552   -0.0054993498
 N   -2.0171281890   -0.9970513611    1.1898612526
 C   -2.0119503214   -1.0191003685   -1.2280847069
 N   -2.7181374159   -1.0222407426   -2.1453827664
 H    0.7488130327    1.8266569497    0.3920037625
 H   -0.4006709235    1.7955432194   -0.7758216779
 H    0.2403177764   -0.9535376626   -2.0803671600
 H    1.7817650134   -0.9157176841   -1.1369895197
 H    0.1108472859   -2.9937161043   -0.0314587050
 H    1.7691989509   -0.9209198575    1.1195520313
 H    0.2094107242   -0.9850082267    2.0476870490
 H   -2.4045094117   -0.0660999866    1.3183786184
 H   -2.7967607823   -1.6404556315    1.1024890000