17

 C    0.3030748063    1.2406531607    0.1647850242
 N    0.0867688399   -0.1772599799   -0.0861410916
 C    0.2864773660   -1.0481794710    1.0618806353
 C   -0.2739306998   -0.5639501329   -1.3391273410
 O   -0.3878467635    0.2068919423   -2.2838771898
 C   -0.6197910068   -2.0472934418   -1.6117556250
 C   -0.2589039503   -2.5149985688   -3.0009598325
 O   -1.2133345137   -2.7320428607   -0.8105014126
 H    1.3243891465    1.4116669949    0.5254181267
 H    0.1445838609    1.7867354057   -0.7631779840
 H   -0.3956307444    1.6025655088    0.9290435000
 H   -0.4777240545   -0.8604829860    1.8264604147
 H    0.2304699601   -2.0939105568    0.7782495371
 H    1.2681054167   -0.8423873074    1.5059584815
 H   -0.7022006962   -1.8433767673   -3.7396838597
 H    0.8266463646   -2.4577746681   -3.1428838080
 H   -0.6018171017   -3.5400830318   -3.1430320953