19

 O    0.0801720870    1.4121731252    0.0957298589
 C    0.0494476022    0.0178839006    0.0593032710
 C   -0.4328761933   -0.6948041143   -1.1869757300
 C   -1.2885042410   -0.7347252999    0.0645265058
 C   -1.1368828080   -1.8564419273    1.0691474937
 C   -0.8713241451   -3.3883095964    0.8026551558
 C    0.4074451626   -3.2986327923    1.7167016185
 C    0.3222958136   -1.8103504789    1.4592832988
 C    0.9940218467   -0.8084875011    0.8900281919
 H    0.7247379586    1.7149222127   -0.5524904366
 H   -0.8214478119   -0.0635481519   -1.9804763346
 H    0.0918249966   -1.5833949354   -1.5231677879
 H   -2.2023481470   -0.1539029653    0.0373759584
 H   -1.8306655611   -1.7460413743    1.9104312017
 H   -1.6548100305   -4.0808937905    1.1178876960
 H   -0.6054241912   -3.5832474829   -0.2385244297
 H    0.1752789659   -3.5774699623    2.7499295385
 H    1.3093610839   -3.8257446304    1.3983611430
 H    2.0702744518   -0.6801999151    0.8477020967