17

 N   -0.0721506684    1.3059713649   -0.0900591500
 C   -0.1012985416   -0.0459218702   -0.0561142389
 N   -1.1316733174   -0.8090646276   -0.1078629149
 C   -0.7054743541   -2.2249291270   -0.0891876335
 C   -1.3470761487   -2.9290789578   -1.2900030751
 O   -2.7471184763   -2.7749626628   -1.2825367736
 C    0.8359352854   -2.2532731875   -0.0800321309
 C    1.2119976887   -0.7851613911    0.0260925100
 O    2.2929345909   -0.2664855206    0.1551835333
 H    0.8051717302    1.7426045870    0.1447067315
 H   -0.9209159478    1.8258547588    0.0551500492
 H   -1.1158502095   -2.6823151315    0.8195887183
 H   -0.8956144833   -2.5282437199   -2.2153162025
 H   -1.1356765690   -4.0038424922   -1.2561754119
 H   -2.9006156003   -1.8409632589   -1.0869568617
 H    1.2699121229   -2.8243267060    0.7445859845
 H    1.2549506883   -2.6593544076   -1.0085604637