21

 C   -0.0419630190    1.6111056928    0.1863182125
 C    1.4589920639    1.2423012032    0.0454044897
 C    1.1682835000    0.0490408841    1.0224816307
 C   -0.0025536031    0.0594117521   -0.0003223679
 C   -1.1677196209   -0.8248127023   -0.3480881802
 O   -1.6603097078   -0.4216029909   -1.6281998073
 C   -0.6859405673   -0.4450851103   -2.6648484373
 C    0.4466458113    0.5853423269   -2.4612573416
 C    1.0706346691    0.2623176168   -1.1080936120
 H   -0.3614999603    1.9643339383    1.1710365813
 H   -0.4993521957    2.2054518526   -0.6039297881
 H    2.3118875867    1.9218666166    0.0896106865
 H    1.8535882683   -0.8024491338    0.9755967293
 H    0.9303506672    0.3177894937    2.0554382120
 H   -0.8564529908   -1.8834767339   -0.3733770266
 H   -2.0124210133   -0.7309684395    0.3415188552
 H   -0.2490751038   -1.4560539822   -2.7458703322
 H   -1.2375257480   -0.2451136988   -3.5880845583
 H    1.1709161407    0.4987454076   -3.2793037834
 H    0.0272846830    1.5941946641   -2.5073686991
 H    1.7582323096   -0.5874985073   -1.2057372832