20

 C    0.0701284207    1.6459683136    0.0346544947
 C   -0.0095910963    0.1177570964    0.0150810831
 O    0.6892711998   -0.3146222085    1.1790142961
 C   -1.4596822047   -0.4046027967    0.0209062294
 C   -2.2847912420    0.0216078692    1.2311136213
 O   -3.5032612505   -0.7068050451    1.1754955784
 C    0.6924662066   -0.4465627149   -1.2557825338
 C    2.1091058066   -0.1012621124   -1.3369835666
 N    3.2286022473    0.1743128905   -1.4125609703
 H    1.1109894526    1.9703838743   -0.0374790259
 H   -0.4918322975    2.0760551338   -0.7994215668
 H   -0.3387079713    2.0341823910    0.9696338317
 H    0.6483351735   -1.2767097342    1.2237810674
 H   -1.9749197241   -0.0916565226   -0.8946748701
 H   -1.4423777171   -1.5030498581    0.0053650488
 H   -1.7222908382   -0.1956286151    2.1501433373
 H   -2.4716062702    1.1053306316    1.2048224028
 H   -4.0400049144   -0.4505356735    1.9310633445
 H    0.5997774022   -1.5395784246   -1.2672699483
 H    0.1878867370   -0.0804931546   -2.1568818038