14

 C   -0.0387112621    1.4678246075    0.0070737379
 C    1.4345302768    1.8841874808   -0.0301789767
 O    2.1842046789    1.4826831878    1.1108611102
 C    2.2827702522    0.6710686807   -0.0811381257
 C    1.3477985240   -0.4727959684   -0.0581985741
 C    1.1726926609   -1.8354260551   -0.0360094169
 N   -0.1664677413   -2.0894102035    0.0582175580
 N   -0.8290756065   -0.9580151890    0.0998524809
 N    0.0832408390    0.0127764308    0.0180742833
 H   -0.5510552950    1.8250109099    0.9038739389
 H   -0.5821709910    1.8078697403   -0.8793725607
 H    1.7111438400    2.8335949374   -0.4787900837
 H    3.2590747241    0.6272577797   -0.5485864383
 H    1.8948884100   -2.6337251590   -0.0765978332