15

 O    0.1313950849    0.0050765286   -0.1000772261
 C    0.0312496495    1.2108264851   -0.0057820512
 C   -1.1914251984    2.0382391500    0.0582460763
 C   -0.8626889362    3.3382066214    0.0467692860
 C    0.6265000188    3.5802503100   -0.0220629054
 C    1.1967558140    2.1725884217    0.0235754346
 C    2.4273324683    1.7424599194    0.7468856350
 N    2.4129481872    1.8003924154   -0.7133791601
 H   -2.1872462885    1.6161029719    0.0880235598
 H   -1.5712254409    4.1591189295    0.0780840441
 H    0.9049844865    4.0950226544   -0.9495088784
 H    0.9673139935    4.2158102478    0.8041389146
 H    3.0391093130    2.4970479475    1.2340722723
 H    2.3988329443    0.7689326798    1.2292131767
 H    2.2695813638    0.8553223676   -1.0733304583