13

 C   -0.3129253145   -0.3984434848   -0.9774566492
 C   -0.0332822117    0.3783336393   -0.1025124167
 C    0.3277905581    1.3484499174    0.9369477774
 N    1.1199569805    2.5121474872    0.5227775481
 C    2.1264380024    2.3400419110   -0.5192339947
 C    0.8720399146    3.0974415220   -0.7903788437
 H   -0.5705647796   -1.0962066606   -1.7357273575
 H   -0.5878276970    1.7288722764    1.4059511208
 H    0.8915771065    0.8356189898    1.7257382047
 H    3.0640481594    2.8606664649   -0.3469612564
 H    2.2157654175    1.3645096696   -0.9918151734
 H    0.1448146750    2.6149403620   -1.4394635289
 H    0.8736284589    4.1832292157   -0.8204268506