19

 C    0.1862261318   -1.2637899199    0.4168332624
 C    0.0758905713   -0.0910163783    0.1777285815
 C   -0.0648827072    1.3432790149   -0.0684989393
 C   -0.8619789577    1.9775080792    1.1015165049
 O   -1.3019654767    3.2883641838    0.8374368926
 C   -0.3319780643    4.3031743237    1.0191015376
 C    0.6399756960    4.4495764950   -0.1536709803
 C    1.5741704214    3.2863510611   -0.3810323054
 C    1.2891754397    1.9849471337   -0.3399551330
 H    0.2821568957   -2.3029360614    0.6131439484
 H   -0.6926815472    1.4774413372   -0.9634560479
 H   -1.7634435988    1.3802400134    1.2654343634
 H   -0.2515120635    1.9409508661    2.0161387952
 H   -0.8974858834    5.2338890885    1.1358781331
 H    0.2295514151    4.1272455797    1.9501734171
 H    0.0519653165    4.6363375745   -1.0641286927
 H    1.2307391907    5.3578597125    0.0150753222
 H    2.5971574388    3.5537443450   -0.6372068874
 H    2.0862862617    1.2798158213   -0.5571746722