18

 C    0.4446199227    1.2553244895   -0.0881416000
 O    0.1252170115   -0.1240994207   -0.0097724675
 C   -1.2529600189   -0.4504812329    0.0672934978
 C   -2.0862279088    0.0640389693   -1.1075128426
 C   -1.2763699342   -2.0014890458    0.0811611056
 C   -0.5303633810   -2.5916325394    1.1922443687
 N    0.0422605685   -3.0724525136    2.0727218550
 C   -1.8111203779    0.0514333880    1.4132727586
 O   -2.9277790482    0.4671469024    1.5715463742
 H    1.5244519523    1.3280658581    0.0552361066
 H    0.1877924695    1.6839916313   -1.0650542190
 H   -0.0528626417    1.8461028672    0.6940742005
 H   -1.6797482290   -0.3080536063   -2.0519474520
 H   -3.1224656171   -0.2642891462   -1.0045374202
 H   -2.0981077785    1.1555618839   -1.1341104115
 H   -2.3117181674   -2.3540192344    0.1188768144
 H   -0.8354469223   -2.3491295006   -0.8589230989
 H   -1.0771283596   -0.0181476000    2.2448552902