17

 C   -0.3172300218    1.5852292873    0.0629571046
 C    0.1135043504    0.1341246830   -0.0454645378
 O   -1.0117561194   -0.7561097985   -0.1349930271
 C    1.0384935726   -0.2407947453   -1.2082439492
 N    1.7538549873   -1.4671223640   -0.8015640914
 C    2.0144880200   -1.3023825029    0.6333589975
 C    0.9205238020   -0.3755700858    1.1762794185
 O    0.6720424293   -0.1183537064    2.3265978155
 H    0.5452969969    2.2584377683    0.0272254249
 H   -0.9966863731    1.8418098374   -0.7548060333
 H   -0.8288546624    1.7533030435    1.0166342649
 H   -1.5047205312   -0.6791224552    0.6911348343
 H    0.4837952562   -0.4063600164   -2.1340188519
 H    1.7667037610    0.5619235028   -1.3783838483
 H    1.1069761735   -2.2416676225   -0.9145947749
 H    2.0477917872   -2.2538334765    1.1690650624
 H    2.9839817916   -0.8072759986    0.7925178714