16

 O    0.0649726395    1.3377329659   -0.0930268019
 C    0.0533460230   -0.0610622391   -0.0322079022
 C    0.4950059346   -0.6558760433    1.3483184528
 C   -0.8541771978   -1.2749724075    1.7463787603
 C   -1.2638560538   -2.0773358525    0.4925648387
 C   -1.4024412258   -0.6241784819   -0.0138830094
 O   -1.8091643466   -0.2260252587    1.3382861222
 C   -2.3015507030   -0.2310881242   -1.0779425099
 N   -3.0031071259    0.0518500263   -1.9509766926
 H   -0.5285228777    1.6484200821    0.6039596690
 H    0.6373701788   -0.4216664168   -0.8809908025
 H    1.2977701054   -1.3930437420    1.2714204021
 H    0.8097952470    0.1423131337    2.0234024936
 H   -1.0114183139   -1.6314182083    2.7621343838
 H   -0.5314511951   -2.7291053390    0.0121067619
 H   -2.2346948186   -2.5603818748    0.5968948141