20

 C    0.1630972471    1.5348160417    0.1073844729
 C    0.1299661332   -0.0016605207    0.0988277622
 C    0.6643242778   -0.5684039919    1.4208611146
 C   -1.2809641482   -0.4802179349   -0.2355756292
 C   -1.6297119085   -1.9865542784   -0.2064918192
 C   -2.6801859299   -1.5774067417    0.8567539715
 O   -2.2390682628   -0.2106220363    0.8351185277
 C   -4.0845191440   -1.7262399807    0.4558240466
 N   -5.1868518771   -1.8592028292    0.1353665897
 H    1.1723300857    1.9029780993    0.3143131438
 H   -0.1557181898    1.9469173203   -0.8556278077
 H   -0.5058283266    1.9288519486    0.8793990970
 H    0.7690854500   -0.3578771613   -0.7230106258
 H    0.0214700990   -0.2689579820    2.2538527594
 H    0.7268710920   -1.6611541206    1.4127963402
 H    1.6708883852   -0.1882558144    1.6181425774
 H   -1.6183302738    0.0086811332   -1.1588561692
 H   -2.0327538885   -2.3990198248   -1.1305072088
 H   -0.8504662685   -2.6428623301    0.1796850767
 H   -2.5512996421   -2.0284991862    1.8473386301