17

 O    0.0210595689    0.0335569244    0.0626609779
 C    0.0146382613    1.2286819318    0.1689761290
 C   -1.1168440434    2.2883101538    0.2791090677
 C   -0.0427884589    3.3198830977   -0.0937653723
 N    0.9227202375    3.2889354508    1.0088152055
 C    1.0633437345    2.2847009360   -0.1069424153
 C    2.3103191844    2.1451544960   -0.8923080890
 C    3.2221333754    0.9958937516   -0.6397229472
 N    2.4467498319    1.0675383621   -1.8874279556
 H   -1.8785671110    2.1130186520   -0.4852253068
 H   -1.5814726568    2.4250036296    1.2573966652
 H   -0.1489840182    4.1736540342   -0.7501589749
 H    1.6391112974    3.9942599656    0.8250305027
 H    2.7466299281    3.0918034115   -1.2111876171
 H    4.2945551984    1.1267533340   -0.7525985040
 H    2.9185425428    0.2727368582    0.1114776779
 H    1.6529861876    0.4344141906   -1.8139905037