20

 C    0.1677237068    1.4236337042   -0.0860505844
 C   -0.0015963993   -0.0700259327    0.0287005861
 N   -0.3992989549   -0.7498360635    1.0248034619
 O    0.3463635923   -0.6642565821   -1.1343181859
 C    0.3055215656   -2.0858336853   -1.1692714790
 C   -1.0335893061   -2.7995590863   -1.4962984114
 C   -0.9123727990   -2.2198857215   -2.9402150482
 C    0.5233998682   -2.7032455086   -2.5677312311
 C   -0.1458966024   -3.9821428981   -1.9823504369
 H   -0.1238327599    1.9235814732    0.8388965707
 H    1.2099255965    1.6676986644   -0.3136389024
 H   -0.4408432247    1.8097222260   -0.9095067864
 H   -0.6059955422   -0.1384831131    1.8113848808
 H    0.8805359086   -2.4895176300   -0.3337927406
 H   -1.9173733160   -2.8495026294   -0.8628924605
 H   -1.4193280368   -2.7823470660   -3.7285514276
 H   -1.0539994728   -1.1454446050   -3.0553719759
 H    1.4261459820   -2.6468352264   -3.1769033069
 H    0.4119726921   -4.5338825624   -1.2203906090
 H   -0.6037040981   -4.6542020872   -2.7108800933