18

 C   -0.2484513386    1.3792097623   -0.3217653927
 N    1.0931802688    0.9106848049    0.1251907056
 C    0.0277646898   -0.0467572050   -0.0913708983
 C   -0.3342425867   -1.0557764109    1.0343708153
 C   -1.2372103801   -2.3018056661    0.6788353278
 C   -2.1278576914   -2.3731943962   -0.5755028036
 C   -1.3190067284   -1.4632296497   -1.4895532613
 C   -0.0737693536   -1.2798121176   -0.9951075213
 C    0.1696309080   -2.2115105714    0.2107884353
 H   -0.7892451007    1.9699334621    0.4129823907
 H   -0.3651448653    1.7169031172   -1.3491789352
 H    1.7479158538    0.9035673958   -0.6523458571
 H   -0.1055793734   -0.8632643322    2.0789256355
 H   -1.4908975908   -2.9002609955    1.5522066405
 H   -2.2567508742   -3.4187988022   -0.8893352646
 H   -3.1322748665   -1.9493959675   -0.4550990001
 H   -1.8232069865   -0.7013757814   -2.0778244652
 H    1.0090938558   -2.8707254465    0.3846757487