17

 O    0.3927725037    0.3785292065    0.9365351318
 C   -0.1364707973    0.2754944603   -0.3734386897
 C   -1.5018665558   -0.4268093480   -0.4158475720
 O   -2.0297761826   -0.4088739889   -1.7372806818
 C   -1.4373091940   -1.8419105731    0.1630979757
 C   -2.8297488471   -2.4974463351    0.2161913833
 C   -2.7833822041   -3.8867888219    0.6628071141
 N   -2.7292686545   -4.9859356708    1.0157098679
 H   -0.1066977618    1.0519149879    1.4092241158
 H   -0.2305211178    1.2540522249   -0.8644406485
 H    0.5918698257   -0.3119679590   -0.9481181917
 H   -2.2142525692    0.1693067392    0.1723861253
 H   -1.4184286508   -0.8893835841   -2.3079194512
 H   -0.7686773639   -2.4544573570   -0.4562580630
 H   -0.9904274896   -1.8000937136    1.1601432212
 H   -3.4876215066   -1.9368022703    0.8909103655
 H   -3.2898285142   -2.4549684570   -0.7764724827