17

 C    0.0608027581    1.5062121988    0.1709652715
 C    0.0061886906   -0.0007852266    0.0475621703
 O    1.0309902558   -0.5562225459   -0.8565779273
 C    1.2944797286   -1.6604952122    0.0743221861
 C    2.6751767027   -1.9563032886    0.6527953038
 C    2.4701433329   -1.6923431276    2.1789418431
 O    3.2284559203   -2.0230072614    3.0541911050
 C    1.2376161223   -0.8445318466    2.3097749035
 C    0.6147900303   -0.8568646647    1.1307953224
 H    1.0487534729    1.8293669952    0.5073805620
 H   -0.1501076894    1.9682540351   -0.7978753803
 H   -0.6914847274    1.8536109361    0.8864804369
 H   -0.9884118765   -0.3363139710   -0.2779181445
 H    0.7740609444   -2.5618754630   -0.2716446718
 H    3.0711335506   -2.9551112622    0.4612116647
 H    3.4003867798   -1.2192478736    0.2907625975
 H    1.0411868439   -0.2428582719    3.1872250972