16

 N   -0.0147572505    1.1239303804    0.2676156745
 C   -0.0086984132   -0.1998373229   -0.0216749972
 O    1.0014909346   -0.8848126601   -0.1501772139
 C   -1.3358544334   -0.8338789837   -0.1175403886
 C   -1.6641732179   -2.0436705041   -0.9698380580
 C   -1.6408866526   -2.1750264367    0.5245895024
 O   -0.7964167185   -2.9945130650    1.2313899942
 C   -2.8267408405   -1.4477297332    1.1536604216
 O   -2.5303338458   -0.2307189602    0.3947568659
 H    0.8566034990    1.5746950077    0.4937797286
 H   -0.8845391209    1.5761701604    0.4979158993
 H   -2.5923745923   -2.0240961466   -1.5342242459
 H   -0.8057241599   -2.4842257523   -1.4648393162
 H    0.1074094199   -2.7312477340    0.9959001427
 H   -3.8345789166   -1.8223657389    0.9487490246
 H   -2.6871357414   -1.2796433711    2.2260183060