18

 C    0.0109926799   -1.2096959960    0.0624930485
 C   -0.0324215943   -0.0093177647    0.0292440539
 C   -0.0638055803    1.4470077889   -0.0265824263
 C    1.3367717485    2.0722032192   -0.0019417392
 C    1.5391949582    3.5981268834   -0.1052546798
 C    0.7287380029    4.1651382841    1.0913100362
 C    1.6977171029    3.3772764083    1.9711972862
 C    2.7268348973    3.3501671083    0.9069137352
 N    2.0753567948    2.0736292781    1.3065197710
 H    0.0455828827   -2.2699300839    0.1028110024
 H   -0.5687162471    1.7694696842   -0.9480119331
 H   -0.6631816509    1.8305268248    0.8057416927
 H    1.9776472915    1.5497223249   -0.7183123774
 H    1.5670181845    4.1177952952   -1.0614280513
 H    0.9035359497    5.2378769117    1.2076149610
 H   -0.3461692192    3.9659135089    1.1430947155
 H    1.8219104907    3.4060301444    3.0453123360
 H    3.7956917380    3.5148305601    0.8873304484