17

 C   -0.1326623983    1.0603571565   -0.2936907503
 N   -0.0031557160   -0.3378924698    0.0719278041
 C    0.6564231732   -0.7446942284    1.1760209808
 O    1.2434633816   -0.0031740661    1.9559652620
 C    0.6759895897   -2.2649950867    1.4394028443
 O    1.2209405248   -2.4899821899    2.7077321442
 C   -0.7168175780   -2.9125436839    1.3605403175
 O   -1.2325740584   -2.9327734554    0.0283485402
 H    0.1590856619    1.2166872449   -1.3371479915
 H   -1.1606889657    1.4167704228   -0.1613338940
 H    0.5260535500    1.6386818228    0.3545771479
 H   -0.5461413377   -1.0420951922   -0.4124775658
 H    1.3048726696   -2.7266830535    0.6543409342
 H    1.5383109523   -1.6119155206    2.9879383887
 H   -0.6528689789   -3.9228112613    1.7819892753
 H   -1.4329904422   -2.3440526033    1.9605559418
 H   -0.7451397179   -3.5994984560   -0.4670984995