15

 O   -0.8372566569    1.3145110022   -0.0791917925
 C    0.2791264167    0.8757692602    0.0525747634
 C    1.4955405889    1.7444611147    0.0113344414
 N    2.6358375365    1.2077140898    0.2105674891
 C    3.7677496504    2.1299813545    0.2444417560
 C    3.6071808359    3.3486125785   -0.6773167516
 C    2.2405779450    4.0012263906   -0.5436944058
 O    1.9996236221    5.1666252216   -0.7474597172
 N    1.2466739170    3.0889370890   -0.2124396802
 H    0.5059025458   -0.1919923514    0.2254256168
 H    3.8858041394    2.4600940567    1.2878200665
 H    4.6768935976    1.5772810454   -0.0071946833
 H    4.3730246714    4.1043952819   -0.4936656755
 H    3.7038161561    3.0375210222   -1.7260667672
 H    0.2785792641    3.3828626042   -0.2633198798