21

 C    0.1612028719    1.5745807862    0.0072654580
 C    0.0196666371    0.0672436235    0.0019166492
 O    0.5992828737   -0.4254918130   -1.1904381337
 C    0.8067906672   -1.8424246285   -1.1843757281
 C   -0.4648083579   -2.6284251853   -0.7822623535
 C   -0.4339609684   -2.6368684621    0.7753776997
 C    0.8527338034   -1.8550123530    1.1353270303
 C    1.7813841574   -2.1712139071   -0.0451212837
 O    0.6459696867   -0.4382638527    1.1649459526
 H    1.2200976066    1.8429679071   -0.0115987957
 H   -0.3310122392    1.9970759162   -0.8718642745
 H   -0.2968734510    1.9876536192    0.9090332263
 H   -1.0475614379   -0.2150053740    0.0215470481
 H    1.1656452781   -2.0871712853   -2.1857398803
 H   -1.3638459579   -2.1648815118   -1.1959721145
 H   -0.4062099092   -3.6429455561   -1.1869611678
 H   -1.3158160428   -2.1780299734    1.2293562822
 H   -0.3596034090   -3.6557017801    1.1664227209
 H    1.2508946428   -2.1105217108    2.1189886014
 H    2.0688462530   -3.2286534457   -0.0565641485
 H    2.6754447754   -1.5455805936   -0.0594274983