14

 O   -0.0389221629    1.4293806996    0.0086386300
 C   -0.0473237494    0.0291076356    0.0025882559
 C   -1.4610602534   -0.4905233414    0.0130008218
 N   -2.4418387714    0.3380472737    0.0238784208
 O   -3.7129240527   -0.2189628235    0.0328597904
 C   -3.9405859313   -1.6014769244    0.0304568812
 N   -5.1237631970   -2.0439419081    0.0398635230
 N   -2.8456337960   -2.4631280988    0.0185207194
 C   -1.6822444257   -1.9300872338    0.0102930981
 H    0.8764802311    1.7241085000   -0.0006367125
 H    0.4554052789   -0.3913337599   -0.8872638509
 H    0.4712190883   -0.3990536098    0.8796096803
 H   -5.7917841041   -1.2723732893    0.0481939282
 H   -0.8167730445   -2.5949405198    0.0008618343