19

 O   -0.6317375892    0.8846250761   -0.6193152295
 C   -0.0438602681   -0.3519323390   -0.2255499908
 C    0.8979822762   -0.9151472767   -1.3059274797
 O    0.1358693272   -1.2613813913   -2.4448758288
 C    0.5811544085   -0.7220304450   -3.6526625859
 C   -0.4805591030   -0.4025019283   -4.6535949531
 C    0.2704303515    0.7196149389   -3.9638852280
 C    0.6542339845   -0.2381193165    1.0565771699
 C    1.2679919020   -0.1078459779    2.0821174769
 H    0.0248131271    1.5753364181   -0.4748108263
 H   -0.8839121712   -1.0499513815   -0.1320530389
 H    1.6595061317   -0.1617154560   -1.5450398813
 H    1.4079188386   -1.8053947777   -0.9127781127
 H    1.5228664612   -1.1372143946   -4.0125629174
 H   -0.2826203962   -0.6036095249   -5.7002749357
 H   -1.5024112937   -0.5772668909   -4.3378954034
 H   -0.2646352826    1.2619139319   -3.1932593130
 H    0.9882454009    1.2977212881   -4.5357740651
 H    1.7901621646   -0.0026903827    3.0011942429