19

 C   -0.0979746352    1.5091732711    0.0109712844
 C    0.0627000316    0.0156111944   -0.0048939319
 C    0.9956269721   -0.7823875411   -0.9475134463
 C    0.7265067731   -1.8995088303    0.0809761597
 C    0.7279002307   -0.8311449132    1.2193924633
 C   -0.2243574343   -1.3348003066    2.2491868916
 C   -1.1209555524   -2.1154005785    1.6284612158
 C   -0.8196887822   -2.0277061444    0.1487971756
 O   -1.1814063139   -0.6445958587   -0.2133762436
 H    0.8678796555    1.9997725806    0.1618462070
 H   -0.5206407587    1.8620257756   -0.9353941854
 H   -0.7740663166    1.8102603173    0.8170223512
 H    0.6528502121   -0.9118379641   -1.9767766826
 H    2.0347897637   -0.4450486057   -0.9180629412
 H    1.3084138595   -2.8173406625    0.1608110240
 H    1.6951538816   -0.4409742665    1.5331914023
 H   -0.2245273523   -1.0460472906    3.2931819240
 H   -2.0019547479   -2.5792531508    2.0527312927
 H   -1.3216165465   -2.7190153359   -0.5271828506