19

 C    0.3060024620    1.7028411309    0.7414766208
 C    0.0726363017    0.2394733315    0.3663891733
 C    0.4261703773   -0.0799044430   -1.1133053719
 O    1.7022938958   -0.6998326101   -1.0388327151
 C    1.6739417404   -1.3979034611    0.1786950063
 O    1.0199196819   -0.5576582822    1.1045873619
 C   -1.3281733643   -0.1897228237    0.7735503510
 C   -2.4983903659   -0.0932623678   -0.1060474805
 O   -1.8840438836   -1.3555517816    0.1663056897
 H    1.3230763347    1.9937405321    0.4663516973
 H   -0.4033269949    2.3590532752    0.2273073051
 H    0.1898985162    1.8446312626    1.8201151272
 H   -0.3110915632   -0.7661193552   -1.5487972484
 H    0.5163783096    0.8141597382   -1.7332718403
 H    1.1296208070   -2.3527173939    0.0725346067
 H    2.6997030806   -1.5779962631    0.5129924544
 H   -1.4921087264   -0.1332384546    1.8502457007
 H   -3.4875119007    0.0489690688    0.3254188590
 H   -2.3844674680    0.2694787568   -1.1270817672