21

 C    1.3573409411    0.7277186499    1.2919957918
 C    0.6190873314   -0.4868284837    0.8048392334
 C    1.0671309303   -1.3430438310   -0.3760892899
 O    0.5868256150   -2.5562754638    0.2572649617
 C    0.2163739284   -1.8128690158    1.4312830679
 C    0.4095340453   -2.4918346913    2.7472423801
 C   -0.8534026414   -0.8194517643    1.0561737522
 C   -1.6074649418   -0.0947102636    2.1475421959
 O   -2.5549800730   -0.9245587626    2.8099935421
 H    2.4348255769    0.5337410506    1.3385976923
 H    1.2043892643    1.5812546933    0.6199326227
 H    1.0377635915    1.0379594016    2.2902755776
 H    0.5954430805   -1.1627150122   -1.3504210343
 H    2.1575270726   -1.3759542047   -0.4965362724
 H    1.4590545385   -2.7626433871    2.8996294110
 H    0.0808430738   -1.8597457839    3.5748009906
 H   -0.1860848989   -3.4109921274    2.7782976957
 H   -1.4640926865   -1.0736505684    0.1868901692
 H   -0.9303587261    0.2487959417    2.9346243357
 H   -2.0923795457    0.8025229097    1.7313978050
 H   -3.1267337162   -1.3098610569    2.1381694015