16

 C    0.0587961290    1.3832618188   -0.0487270573
 N   -0.0372796592   -0.0686622503   -0.0930604488
 C    0.5735213855   -0.6960657526   -0.9792904529
 O    1.3718800797   -0.2320093483   -2.0466464181
 C    1.4672610185   -1.5763773205   -2.5511664755
 C    2.1932119054   -2.4601312609   -1.5768266422
 C    3.2314714635   -2.0000100609   -0.7018149396
 C    4.1081814682   -1.6300478737    0.0321172803
 C    0.6931424645   -2.1292336195   -1.3830621547
 H    0.6533351839    1.8176748719   -0.8601803304
 H   -0.9505442057    1.8071120867   -0.0801278943
 H    0.5004262810    1.6786189808    0.9090483112
 H    1.3918031256   -1.7202270034   -3.6205180564
 H    2.3181763930   -3.4762245329   -1.9471861938
 H    4.8791228545   -1.2951510027    0.6809782606
 H   -0.0609145376   -2.8976816025   -1.2998879480