16

 O   -0.5172944063    1.4362982935   -0.1447229950
 C   -0.0912392434    0.1151720306   -0.0886511904
 C   -1.2574804612   -0.8905371722    0.1134945004
 O   -2.5044317144   -0.4400700250   -0.4177547669
 C   -2.2764404868   -1.1209628965   -1.6761735014
 C   -0.8950578844   -1.6170732782   -1.2145390670
 C    0.2826550913   -0.6206590008   -1.4515024513
 C    0.2652951881    0.1905269324   -2.6531391604
 N    0.2527465082    0.8608410798   -3.5956732978
 H    0.2291759683    1.9989687595   -0.3779849370
 H    0.7123012373   -0.0413482874    0.6453341584
 H   -1.3575829283   -1.3541357766    1.0977367672
 H   -3.0112842181   -1.9192390596   -1.8323712119
 H   -2.2907567510   -0.4386955845   -2.5328823564
 H   -0.6654995103   -2.6758890076   -1.3115597028
 H    1.2538886710   -1.1168875974   -1.3763403775