19

 C    0.0892416892    1.4986706212   -0.0470739958
 C   -0.0581389835   -0.0056539134   -0.0660056194
 C    0.7263870778   -0.7717787799   -1.1643540279
 C    0.1573594261   -2.1752277555   -0.9934055622
 C   -1.0190582218   -2.1229953374   -0.3586033378
 C   -1.3431957371   -2.6230438990    1.0416029582
 C   -1.1486119181   -1.0994357968    1.4202609154
 O    0.1993386132   -0.5740832581    1.2844910386
 C   -1.4346018425   -0.6852969801   -0.0327552066
 H    1.1246403810    1.7759064634    0.1781042721
 H   -0.1736954474    1.9261856507   -1.0207962901
 H   -0.5532134949    1.9466856912    0.7159163837
 H    0.5779763585   -0.3052667000   -2.1485080375
 H    1.8044017062   -0.7676975958   -0.9660286459
 H    0.7869256415   -3.0572742789   -1.0448008425
 H   -2.3902996431   -2.8878951913    1.2310892054
 H   -0.6791564826   -3.3735848506    1.4753878820
 H   -1.6489586612   -0.7280956805    2.3195899657
 H   -2.3570344712   -0.2500009992   -0.4128527055