23

 C    0.0007455499    1.5545561000   -0.0838122980
 C   -0.0056634994    0.0290770829    0.0412665776
 C    0.8062917770   -0.4721589447    1.2404755526
 C    0.8134730464   -1.9924182681    1.3544099326
 O    1.3998354727   -2.5742689089    0.1797802441
 C    2.3111149406   -3.6087431112    0.5388419388
 C    2.0019403886   -3.9464114707    2.0013420652
 C    1.5918837276   -2.5717377593    2.5476342154
 O    2.7219331945   -1.7464999599    2.8020902711
 H    1.0203919707    1.9365945421   -0.2064020155
 H   -0.5849071689    1.8873427069   -0.9467274073
 H   -0.4224086296    2.0296626068    0.8088503308
 H   -1.0411689658   -0.3280285101    0.1274284015
 H    0.3992705729   -0.4233161030   -0.8702538024
 H    1.8409393990   -0.1231594927    1.1722042389
 H    0.3941552578   -0.0568331930    2.1701959935
 H   -0.2272487609   -2.3503711655    1.4302427041
 H    2.1698480052   -4.4570241517   -0.1393675512
 H    3.3448557644   -3.2505764921    0.4340596631
 H    1.1599923354   -4.6436903816    2.0719195122
 H    2.8505522010   -4.3805690107    2.5383116168
 H    0.9519656575   -2.6404607919    3.4381438128
 H    3.2403551835   -2.1606544835    3.4986438133