18

 O    0.2978103157    1.0712600768   -0.8590919646
 C    0.0162596354    0.0699485130    0.1062932461
 C   -1.2760175063   -0.6226551776   -0.3050425219
 C   -1.6853378456   -1.7315046813    0.6677465947
 C   -2.9515901994   -2.4314413997    0.2910098179
 C   -3.7835876988   -2.2412543450   -0.7628627926
 O   -4.8162925711   -3.1373520840   -0.6664697073
 C   -4.5446861802   -3.8300565640    0.4595891076
 N   -3.4668028161   -3.4693250190    1.0716839458
 H    1.1128403838    1.5137217691   -0.6053924056
 H    0.8320209388   -0.6694113157    0.1649347371
 H   -0.0994316249    0.5058888305    1.1123336210
 H   -2.0672969679    0.1332975110   -0.3728901191
 H   -1.1430061550   -1.0327899978   -1.3131558789
 H   -0.8848916329   -2.4793254202    0.7471214108
 H   -1.8021330876   -1.3221598366    1.6801934314
 H   -3.8055594202   -1.5769502044   -1.6084081840
 H   -5.2437964579   -4.6048661650    0.7333241115