17

 C   -0.0355219498    1.5449223906   -0.2449601889
 N    0.0004932641    0.0955700352   -0.0723217594
 C   -1.0917340867   -0.4980597759    0.7523715293
 C   -0.1854343791   -1.6953041897    1.1669094622
 C   -0.5529680319   -1.5390078320    2.6635240330
 C    0.4330811989   -1.9471703190    3.6527810109
 N    1.2228359431   -2.2631005964    4.4363023449
 C   -0.4925195936   -0.0780391888    2.1472812574
 C    0.6883242623   -0.4049279819    1.1546671548
 H    0.9379435710    1.8841187678   -0.6128505869
 H   -0.7841119521    1.7962431520   -1.0030714199
 H   -0.2716307028    2.1094990373    0.6723568161
 H   -2.1387228508   -0.5216054884    0.4462797294
 H   -0.0067026508   -2.6042870535    0.5964035751
 H   -1.5453611503   -1.9007689835    2.9481545568
 H   -0.6694561953    0.8253951146    2.7276297096
 H    1.7607921738   -0.3153866284    1.3272533556