23

 C   -0.2524221036    1.7229447973    0.2028448056
 C   -0.1803635973    0.1930865554    0.1459504243
 C   -1.5478403957   -0.5103840254    0.0425503238
 C   -2.2671102329   -0.1755318809   -1.2725638999
 C   -1.4111249883   -2.0399935874    0.1735917517
 C   -1.0308619047   -2.5339279195    1.5852096841
 N   -2.0579582324   -2.1614241103    2.5617393948
 C   -0.7702048597   -3.9907679796    1.5542482860
 N   -0.6020748699   -5.1350818216    1.5568008812
 H    0.7431969493    2.1539852815    0.3468511426
 H   -0.6626445234    2.1499452443   -0.7169569852
 H   -0.8821252359    2.0567068293    1.0351145839
 H    0.4441990030   -0.1153559206   -0.7043955333
 H    0.3413645754   -0.1555322570    1.0455850530
 H   -2.1711224882   -0.1641634443    0.8762158069
 H   -1.6813963990   -0.5077419043   -2.1385007785
 H   -3.2434657149   -0.6686090538   -1.3237606925
 H   -2.4368854631    0.8991307612   -1.3788651292
 H   -2.3603236828   -2.5184827341   -0.0996038709
 H   -0.6658299887   -2.4124674472   -0.5395063647
 H   -0.0964569213   -2.0535171594    1.8959502568
 H   -2.9222846848   -2.6548847013    2.3539988236
 H   -1.7781078711   -2.4512512624    3.4939302059