21

 C    0.6284242492    0.9485145039   -0.9847623507
 C   -0.1276978594    0.1823397783    0.0958838550
 N    0.7979293117   -0.5466277943    0.9608492779
 C    0.1363330614   -1.3348951143    1.9843551229
 C    1.1623224957   -1.9274257017    2.9618601634
 O    0.4548773693   -2.6227515863    3.9571449214
 C    1.2546184795   -3.0585712990    5.0432841196
 C    2.1101858949   -2.8183456954    2.2475912380
 N    2.8379121185   -3.5156108337    1.6814521287
 H    1.1766750690    0.2641621653   -1.6423371449
 H   -0.0629774977    1.5232275860   -1.6077086737
 H    1.3506521929    1.6362987823   -0.5359897313
 H   -0.6891267293    0.8849819561    0.7253162553
 H   -0.8782177634   -0.4805974467   -0.3736871021
 H    1.3788496812   -1.1530358053    0.3877075396
 H   -0.5139577660   -0.6798390247    2.5736986979
 H   -0.4927982021   -2.1562079062    1.5998980946
 H    1.7539290556   -1.1034775678    3.3903318655
 H    0.5815812327   -3.5431264116    5.7527988513
 H    2.0180994577   -3.7793174417    4.7213000663
 H    1.7522929787   -2.2116802932    5.5380345752