23

 C   -0.0454983080    1.5150779557    0.0596557127
 C   -0.0009020473   -0.0017192874   -0.0064196353
 O   -1.3279243470   -0.4923261828   -0.0040961236
 C   -1.4115906900   -1.8974431687   -0.0665238234
 C   -2.8853852646   -2.2870539074   -0.0029754323
 C   -3.0611819714   -3.8232076445   -0.0375013302
 C   -4.5112248071   -4.2675385844   -0.2487005984
 C   -3.4972323338   -1.7443400971    1.2763992526
 O   -4.5886933450   -1.2476416620    1.3699597209
 H    0.9684002597    1.9260103920    0.0607806943
 H   -0.5846369436    1.9205449292   -0.8010080973
 H   -0.5558272967    1.8442960659    0.9690709013
 H    0.5229631294   -0.3360066234   -0.9178790910
 H    0.5556287455   -0.4127544152    0.8529097515
 H   -0.9550467407   -2.2803941014   -0.9941894772
 H   -0.8613068052   -2.3556990884    0.7756456521
 H   -3.4198875175   -1.8341628326   -0.8446503551
 H   -2.4300463197   -4.2243914312   -0.8399433498
 H   -2.6707192485   -4.2510598633    0.8960482887
 H   -4.5890946895   -5.3586723917   -0.2316494616
 H   -5.1707659967   -3.8673299459    0.5266210220
 H   -4.8910514723   -3.9180258169   -1.2142758968
 H   -2.8516475301   -1.8876628485    2.1772053056