18

 O    0.2094857597    1.4136306170    0.1049559380
 C    0.0575101469   -0.0054673386    0.0071072268
 C   -1.3719296493   -0.4804419769   -0.1329881710
 C   -2.1748950219   -0.0626232184   -1.3214575983
 C   -1.3212821524    0.3606837711   -2.5128172346
 C   -0.4583813174   -0.8814369839   -2.1920091962
 C    0.7369885535   -0.5619630631   -1.2878110634
 O    1.6641453755    0.3336693074   -1.8430852966
 N   -1.5419692637   -1.4342423988   -1.2587379915
 H   -0.5765453231    1.8204777388   -0.2744116267
 H    0.5293304539   -0.4113822040    0.9055269059
 H   -1.9324561598   -0.7467770436    0.7572664291
 H   -3.2508965152    0.0603472983   -1.2404384720
 H   -1.8737598715    0.2404730921   -3.4466506817
 H   -0.8342731414    1.3398560221   -2.5182961918
 H   -0.2324950024   -1.5532743782   -3.0184441090
 H    1.2486887760   -1.5015710971   -1.0414643395
 H    1.5252243825    1.1694366459   -1.3714530878