13

 O    0.0891267377    1.4214093870   -0.0837127006
 C    0.0338794191    0.0116211708   -0.0018133594
 C    0.7111422624   -0.5121375400   -1.2997293740
 C    0.0572542169   -0.0327089967   -2.5137622663
 N   -0.4437382608    0.3288923294   -3.4889429775
 C    0.7567939119   -0.5052515977    1.1686702673
 C    1.3640962057   -0.9045690364    2.1239022724
 C   -1.3773630609   -0.4529281965    0.0653647554
 N   -2.4779941379   -0.7947754699    0.1375731311
 H   -0.2850279307    1.7935645839    0.7240447175
 H    1.7478223739   -0.1645891861   -1.2805246140
 H    0.7168432836   -1.6050567266   -1.2881842552
 H    1.8935965393   -1.2593859511    2.9749786431