23

 C   -0.0450001914    1.5439104702    0.0911568482
 C   -0.0279810100    0.0146878018   -0.0026921407
 C    0.7162451452   -0.5251181197   -1.2302357274
 C    2.2287083411   -0.1739618381   -1.2754845063
 C    2.8842048436   -1.2764545865   -2.1351399228
 C    2.0087831236   -2.5047762461   -1.9228917828
 O    2.0302912609   -3.5038647751   -2.8997624245
 C    1.6386783825   -2.8625855369   -0.5048871186
 C    0.6913434147   -2.0432259225   -1.3714733974
 H    0.9663371873    1.9543610072    0.1795322736
 H   -0.5051325221    1.9893990386   -0.7983411334
 H   -0.6147725554    1.8806970201    0.9628569546
 H    0.4267174750   -0.4071064643    0.9035361070
 H   -1.0605146574   -0.3570239420   -0.0239405210
 H    0.2377814622   -0.1079003910   -2.1288507618
 H    2.4153409273    0.8267287529   -1.6728682941
 H    2.6407749692   -0.1885615737   -0.2595822314
 H    2.8413925734   -1.0202224896   -3.2002915171
 H    3.9381013766   -1.4388691566   -1.8792045755
 H    2.8313964019   -4.0238691230   -2.7739292320
 H    1.3475814425   -3.8947205782   -0.3432230199
 H    2.1550748872   -2.4027875639    0.3320413214
 H   -0.2253543879   -2.5272183737   -1.6904372182