16

 N    0.1469141123    1.3974566990    0.1051912262
 C    0.1658243812    0.1324731653    0.0590584222
 O   -1.0078393527   -0.5689587447    0.1737808665
 C   -0.7527039897   -1.9729027580    0.0938547133
 C    0.7363993643   -2.0771531522   -0.0920226035
 C    1.2551034933   -0.8507572354   -0.1048631587
 C   -1.2547246163   -2.6533599142    1.3537520246
 C   -2.5626823578   -3.3122285878    1.3962851408
 O   -1.3562071625   -4.0726231919    1.2657725931
 H    1.0917001379    1.7634511819    0.0044124274
 H   -1.2965683961   -2.3881053949   -0.7663852381
 H    1.2470018373   -3.0261047746   -0.1845160281
 H    2.2918842051   -0.5652954657   -0.2161457381
 H   -0.8207350039   -2.2725832555    2.2786018815
 H   -3.0794764304   -3.4182818346    2.3479025486
 H   -3.2011455422   -3.2939763569    0.5144315325