16

 C   -0.0783240693    1.5460859408   -0.0051196373
 C   -0.0301593624    0.0170767461   -0.0042557014
 C   -1.3120430526   -0.5740401523   -0.3484643815
 C   -2.3809979481   -1.0435062533   -0.6351899475
 C    1.2355128020   -0.6598034116   -0.6552552790
 N    2.0246152635   -0.1332035057    0.5389338940
 C    0.7498267002   -0.6740654857    1.1780457155
 C    0.9562273946   -1.8910055611    0.2422178869
 O    1.0925184916   -3.0723763838    0.2691336726
 H    0.8937978158    1.9640499358    0.2556347284
 H   -0.3733922950    1.9088924784   -0.9938400952
 H   -0.8255255755    1.8956175539    0.7130586230
 H   -3.3204208126   -1.4707098430   -0.8867980379
 H    1.5942451248   -0.5667235618   -1.6786090246
 H    2.8225766375   -0.7390069893    0.7456182975
 H    0.5545162254   -0.5972537574    2.2460154665