18

 N   -0.5400045470   -0.0160702819    1.7756378124
 C   -0.2239029334    0.3782346480    0.7364860704
 C    0.1982930693    0.8912208747   -0.5651973294
 C    1.4176402473    1.8111485460   -0.4631135554
 C    2.7565363301    1.2214753177   -0.5994968240
 O    2.1349073134    1.9186161774   -1.6910527031
 C    1.1972412232    3.0890493656    0.2911898407
 C    2.0620011959    4.2902633638    0.0255983205
 C    0.6251461359    4.2866041452   -0.4319814182
 H    0.4296115352    0.0520709903   -1.2280783400
 H   -0.6350250791    1.4430485770   -1.0151190994
 H    3.6062086034    1.7310853624   -0.1510466613
 H    2.8705751062    0.1480192434   -0.7406721944
 H    0.8640428972    2.9344687588    1.3133285657
 H    2.3388238893    4.9126895124    0.8685981438
 H    2.8187435303    4.1952988869   -0.7445366047
 H    0.4511157067    4.1904640966   -1.4983260559
 H   -0.0937351739    4.9058390356    0.0919042623