20

 C   -0.0030455711    1.5336177596    0.0791344333
 C   -0.1369724074    0.0134263823   -0.0592115830
 C    0.6920532329   -0.5551001676   -1.2072121871
 C    2.2617950267   -0.5565044978   -1.0949153110
 C    2.2454586693   -2.0714806409   -1.3369874849
 O    3.1310924226   -2.7339734628   -2.1707201679
 C    1.4455433350   -2.7748058489   -0.2800381473
 C    0.7287226927   -2.0774519131   -1.4219994485
 H    1.0358267868    1.8260008015    0.2675254731
 H   -0.3277051931    2.0441477921   -0.8345668617
 H   -0.6101691942    1.9144547677    0.9063277270
 H    0.1532443177   -0.4666142686    0.8837019763
 H   -1.1910411125   -0.2489108973   -0.2203720467
 H    0.3988720671   -0.0576305103   -2.1383245278
 H    2.7399589960   -0.0116197210   -1.9115358281
 H    2.6917713457   -0.2225002028   -0.1434151161
 H    3.8779307505   -3.0338450669   -1.6409030418
 H    1.4535520143   -3.8568265953   -0.3678702053
 H    1.3921644682   -2.4040968361    0.7411396383
 H    0.0830514629   -2.6330562439   -2.0916127409