18

 C    0.1165737339    1.3709608662   -0.3981138915
 C    1.4065544437    1.9909335174    0.2324611758
 C    2.1605733925    0.7587919072    0.6825676627
 N    3.4493636506    0.3173291008    0.1328686473
 C    3.2560862838    0.3322508203    1.5920795694
 C    2.7568000748   -0.9826484092    2.2228114314
 N    1.4482533933   -1.3171386899    1.6127972543
 C    1.1486190085   -0.3211801633    0.8646303395
 N    0.0264259326    0.0244462519    0.1801321734
 H   -0.7755737483    1.9581447216   -0.1586524185
 H    0.1976885591    1.3238547893   -1.4918938744
 H    1.9681528926    2.5933836325   -0.4825231403
 H    1.1371938604    2.6236644126    1.0839316015
 H    3.3820219871   -0.6355113686   -0.2251619319
 H    3.8988393264    1.0093527598    2.1452452120
 H    3.4767516844   -1.7996078732    2.0781949820
 H    2.6305068450   -0.8652719094    3.3071573848
 H   -0.8461796203   -0.4649212659    0.2815582525