17

 O    0.6495745335    0.2126632033    0.7168521676
 C   -0.1703646174    0.3086436160   -0.4340576940
 C   -1.5089769525   -0.3488283174   -0.2402067237
 C   -2.2488275623   -0.5802769722    1.0399662833
 C   -1.9564622870   -1.7488317948    0.1135180033
 C   -2.8334938347   -1.6226896485   -1.1396474695
 O   -2.4360346785   -0.2529182495   -1.3333339961
 C   -2.3687102421   -2.5411550232   -2.2531578452
 O   -1.6246470168   -2.2272024102   -3.1413837769
 H    0.3092962442    0.8293848434    1.3724940376
 H   -0.3362826471    1.3523599648   -0.7435247745
 H    0.3647905960   -0.1878487922   -1.2490330065
 H   -1.6379821775   -0.5857549929    1.9370468030
 H   -3.2605787069   -0.2023068738    1.1595909868
 H   -1.3858243725   -2.6179414430    0.4105666395
 H   -3.9189020867   -1.7347694047   -1.0012762879
 H   -2.7686032617   -3.5787321451   -2.1562432067