19

 C    0.0113473096    1.6345597550    0.0209431854
 C    0.0417343241    0.1153548475    0.0133723739
 C    1.0608481937   -0.6541656658   -0.8694727504
 C    2.4761825732   -0.3262108375   -0.3416150142
 C    2.2009172832   -0.3304264405    1.1909442233
 C    0.6941196518   -0.6708629034    1.1843055652
 C    1.0778971144   -1.8286183827    0.1836291470
 C    2.6063483596   -1.5873592842    0.4542478359
 O    3.6918412381   -2.4187370648    0.5540968792
 H    1.0096183996    2.0451275466    0.2045724640
 H   -0.3425568750    2.0301098758   -0.9379387920
 H   -0.6568546117    2.0154790682    0.8017444510
 H   -0.9604317940   -0.2931641954   -0.1697042384
 H    0.9193242535   -0.7971243669   -1.9404329203
 H    3.2548894122    0.2882982019   -0.7729892042
 H    2.7718058463    0.2934117336    1.8662562406
 H    0.1864419176   -0.8297347113    2.1358940926
 H    0.5407720668   -2.7678553465    0.0781309550
 H    3.6698281669   -2.8465544394    1.4178167665