16

 O    0.2494552836    0.7083950201    1.1698312491
 C    0.1292492670    1.3119886608    0.1255967366
 N    1.0923428888    1.4127275896   -0.8340751991
 C    2.4233658694    0.8815384424   -0.6478528694
 C    3.4278653860    1.9540607373   -0.1159782710
 C    4.7462878062    1.3530359895    0.0913078718
 C    5.8082528530    0.8169069460    0.2539927611
 C    3.4837165366    3.1039099927   -1.0239213527
 C    3.4865477836    4.0284070665   -1.7913290779
 H   -0.8004681712    1.8370684058   -0.1685911364
 H    0.9359358481    2.0439835496   -1.6044861084
 H    2.3586398401    0.0751664911    0.0832943276
 H    2.8003059978    0.4805354834   -1.5919552278
 H    3.0381676092    2.2935241591    0.8535413395
 H    6.7537153256    0.3572688561    0.4053548017
 H    3.5167889564    4.8578724001   -2.4542334746