18

 C   -0.1214777985    1.5418139423    0.1680097694
 C    0.0662180454    0.0292943302    0.0464989533
 N    0.7721131244   -0.5445478272    1.1824735339
 C    2.0762530839   -0.9188393047    1.2909024451
 N    2.3993922310   -1.3813716397    2.4504986361
 O    1.1871293707   -1.3046587996    3.2048435520
 C    0.1869834517   -0.7887697576    2.4213212180
 N   -1.0184254587   -0.5725368838    2.7256407828
 C   -1.4514986616   -0.9130997470    4.0730885686
 H    0.8419403359    2.0588770654    0.2108755082
 H   -0.6766512289    1.9188456706   -0.6959864571
 H   -0.6877989486    1.7734075103    1.0726826144
 H   -0.9072160351   -0.4669208894   -0.0054141623
 H    0.6282322323   -0.2308585980   -0.8553918355
 H    2.7825218745   -0.8438831090    0.4768854292
 H   -0.9471644220   -0.3030499006    4.8350857221
 H   -2.5262231049   -0.7336007791    4.1550115908
 H   -1.2603632514   -1.9658977629    4.3218319311