18

 N   -0.7540333643    0.9961186881    0.2041686433
 C   -0.2670398895   -0.3576220028   -0.0287110854
 C    0.7678631716   -0.4625046111   -1.1895121531
 O    1.2033897341   -1.7829864698   -1.4429527153
 C    0.2160368085    0.1636992836   -2.4094024158
 N   -0.2625323376    0.6241428291   -3.3556709670
 C    0.3190014980   -0.9688051407    1.2368864369
 C    0.9440073609   -0.1314615169    2.2914395255
 N   -0.3645787900   -0.7730388849    2.5180669367
 H    0.0090932032    1.6659598338    0.2241117175
 H   -1.3843941180    1.2867647988   -0.5349677669
 H   -1.1368490855   -0.9630874237   -0.3219040586
 H    1.6677290600    0.0919901530   -0.8976589201
 H    0.4578934208   -2.2907692656   -1.7847481175
 H    0.7051509042   -1.9725606998    1.0872955401
 H    1.7654756390   -0.5322651695    2.8779829280
 H    0.9628141035    0.9472669866    2.1655083735
 H   -1.0813372088   -0.0612989682    2.3744984682