18

 C    0.0287966098    1.4403685597   -0.2555486002
 C    1.3432167419    0.7782284753    0.0357028504
 O    1.7827916458    0.8272141884    1.3934903587
 C    0.8057662437    0.2578038323    2.1334202213
 N    0.5114545625    0.4848733824    3.3419290705
 C   -0.7296253814   -0.2851459227    3.5889231160
 C   -1.3620199496   -0.5616833814    2.1850803560
 C   -0.1024111644   -0.6358175010    1.3102852550
 C    0.0878864319   -0.0672150396   -0.0815009918
 H   -0.4124928324    2.0484249081    0.5280549864
 H   -0.1321970537    1.8121796858   -1.2612813155
 H    2.1717460020    0.7739455169   -0.6593661606
 H   -0.4938265662   -1.2235323479    4.1097262044
 H   -1.3901557952    0.2877586180    4.2459845663
 H   -1.9792280557   -1.4625732787    2.1582717410
 H   -1.9842266155    0.2891538793    1.8870439800
 H    0.2989976383   -1.6595361209    1.3202047045
 H   -0.0693813618   -0.6972287040   -0.9481950725