19

 C   -0.3206188201    1.3842059608   -0.6335467171
 O   -0.3539898881   -0.0457291369   -0.5493712816
 C   -0.9798566007   -0.5464959784    0.5372437685
 O   -1.4636091272    0.1450789587    1.4014231593
 C   -1.0300786926   -2.0529262031    0.4857045025
 C   -1.3774179616   -2.8163881197    1.8029219285
 C   -2.6155470719   -3.4131025731    1.1180071521
 C   -3.5245887306   -2.3156357756    0.6441230566
 C   -2.3012051294   -2.6481713591   -0.1669381982
 H    0.2139627203    1.6157294330   -1.5549916820
 H   -1.3338677779    1.7930364969   -0.6660260866
 H    0.1997146904    1.8098902970    0.2282260505
 H   -0.1260195448   -2.4311715116    0.0064667682
 H   -0.6145363582   -3.5571461872    2.0502944084
 H   -1.5679240525   -2.1865677489    2.6750960415
 H   -2.9568042883   -4.4350134157    1.2259825951
 H   -4.4592283789   -2.6465180236    0.2027133634
 H   -3.5875791492   -1.3780095838    1.1888615660
 H   -2.3603627585   -2.9697367099   -1.1992214750