15

 O    0.0999665267    0.2451557386    1.0736117638
 C   -0.0064665990    1.2637279847    0.4153549711
 C    1.1425173986    1.8568358476   -0.2531784678
 C    2.0941184910    2.3556843060   -0.7963716654
 C   -1.2877697954    1.9652083307    0.2261173368
 C   -2.5090774438    1.6338635735    1.0731682010
 C   -2.5880606996    1.3846322562   -0.3816472063
 O   -2.8478514729    2.5634973231   -1.1230604206
 C   -1.6034112708    3.1640973462   -0.6637590159
 H    2.9466856527    2.7798600028   -1.2691690514
 H   -2.3579219429    0.7570195824    1.6935128731
 H   -3.0817910481    2.4474455307    1.5091594886
 H   -2.7617840410    0.4251153321   -0.8552897618
 H   -1.7654278221    4.1287097875   -0.1705801370
 H   -0.9059283934    3.2786266680   -1.4987483183