16

 C    0.0029633837    1.5335062550    0.0273902600
 N   -0.1050916121    0.0824023256    0.0269882346
 C    0.4833460987   -0.5641772198    0.9287461311
 O    1.2876687723   -0.0705813058    1.9559116492
 N    1.5794784435   -1.1119862094    2.9352086919
 C    1.0991649717   -2.1473909519    2.3494073433
 C    0.5455818888   -3.5532982039    2.4906372062
 C   -0.2923304442   -3.1785989757    1.2059855428
 N    0.5259397808   -1.9404598508    1.1304234633
 H    0.8775710775    1.8561494110   -0.5524150797
 H   -0.8825598525    1.9538669950   -0.4575105292
 H    0.0939291548    1.9636638951    1.0328386427
 H    1.2720852512   -4.3521648173    2.3379433739
 H   -0.0266348608   -3.7368084376    3.3995182236
 H   -0.1843057602   -3.8271545410    0.3362441203
 H   -1.3476368533   -2.9803063488    1.4072518861