21

 O   -0.0388677053    1.4523202411    0.0568191499
 C    0.0006558680    0.0418227165   -0.1063897401
 C   -1.4117441569   -0.4967561514    0.0851118788
 C   -1.4858536394   -2.0167033786   -0.0200495195
 C   -2.8308690579   -2.7429340877   -0.0060587214
 C   -3.3299175845   -2.8519846979   -1.4585714468
 C   -2.2882016849   -2.1980781479   -2.3625175342
 C   -1.2334249282   -2.7645515991   -1.3723907401
 C   -2.3144879457   -3.8291358325   -0.9160326603
 H    0.8486901607    1.7955443556   -0.0809874027
 H    0.3722391713   -0.2309021066   -1.1077640156
 H    0.6781502717   -0.4249257928    0.6281690230
 H   -1.7685752445   -0.1842241684    1.0747409876
 H   -2.0737763605   -0.0182419819   -0.6436294362
 H   -0.8397784271   -2.4706071469    0.7424047798
 H   -3.5210697010   -2.8479063548    0.8221849148
 H   -4.3762965838   -3.0361663374   -1.6669101161
 H   -2.2328082216   -2.7129525014   -3.3260155359
 H   -2.3178467079   -1.1161820540   -2.5333998881
 H   -0.2197191912   -2.9802603377   -1.7048160694
 H   -2.3110217013   -4.9056719561   -0.8299298276