18

 O   -0.1418827740    1.5028153220    0.4798355687
 C    0.0511784227    0.1541910331    0.1247978798
 C    0.3264147090   -0.8880916730    1.2582067338
 C   -0.8752762085   -1.7359773988    0.7551904028
 C   -2.1889322264   -1.4800731389    1.5589342611
 C   -2.4738409196   -0.2319517576    0.6471281207
 C   -1.2515815994   -0.5829451531   -0.2431008188
 C   -3.1777672247   -2.5397905496    1.4441889526
 N   -3.9581283487   -3.3866984368    1.3352964181
 H    0.7116991310    1.8879569035    0.7015365913
 H    0.7917187594    0.0599959968   -0.6815096735
 H    1.2985110065   -1.3832461094    1.2086835004
 H    0.1923558959   -0.4783141488    2.2637842282
 H   -0.6712551177   -2.7604274698    0.4493922557
 H   -2.0341797650   -1.2599362138    2.6194921721
 H   -3.4340203230   -0.2779926361    0.1336496190
 H   -2.3900172489    0.7240906243    1.1643576132
 H   -1.4581977786   -0.7402975239   -1.3011413753