21

 C    0.0287070170    1.5112266034   -0.0825973593
 C    0.0087804349   -0.0219189920    0.0274747212
 C    0.8375299832   -0.4689938196    1.2397697232
 C   -1.4526822492   -0.5362034880    0.0736258082
 C   -2.2175118333   -0.0724957654   -1.1649797485
 O   -3.3788729916    0.2453792059   -1.1656821119
 C   -1.5657510598   -2.0543695595    0.1528519632
 C   -2.7958811080   -2.7791552337   -0.1852025328
 O   -1.6871839434   -2.7541720106   -1.0937395084
 H    1.0550615349    1.8817409227   -0.1648439560
 H   -0.5237267239    1.8736106569   -0.9556907833
 H   -0.4222023970    1.9695772996    0.8055111458
 H    0.4744033220   -0.4387263388   -0.8770540698
 H    1.8407290383   -0.0335577051    1.1925244197
 H    0.3763741518   -0.1335827219    2.1763079575
 H    0.9586099623   -1.5539386775    1.2925776495
 H   -1.9616406921   -0.1112059002    0.9490314201
 H   -1.6189674935   -0.0657239209   -2.1015855591
 H   -0.8906377964   -2.5344192802    0.8599301727
 H   -2.9876961807   -3.7438830073    0.2814567777
 H   -3.6751053155   -2.2261080178   -0.5076100198