11

 N   -0.2957077076   -0.8601061939   -0.8825414912
 C   -0.1075876670    0.0870418310   -0.2494952303
 C    0.1315968176    1.3018006499    0.5306546428
 C    1.4516611609    1.9438293529    0.2071936355
 N    2.2041946487    2.4566051564    1.1429263556
 O    3.2891694038    2.9772532715    0.5036260006
 N    3.2156637337    2.7811055544   -0.8461333714
 C    2.0944796273    2.1476318546   -1.0468062136
 H   -0.6874064021    2.0046459830    0.3334170632
 H    0.1000651550    1.0677379596    1.5986971827
 H    1.7845721497    1.8530114706   -2.0372996039