16

 O   -0.0519338670   -0.0580339262   -0.1804270201
 C   -0.0360200010    1.1448751182   -0.0983453646
 N    1.1434599443    1.8897484642    0.0419776009
 C    2.3828186533    1.2075176031    0.0847934602
 C    3.5228243079    1.8148086808    0.4025896248
 C    3.5564476508    3.2821396887    0.7280605420
 C    2.4076949608    4.0081855825    0.0131310695
 C    1.0685740068    3.2998739592    0.1125424739
 O    0.0095592134    3.8762252353    0.1912233811
 H   -0.9212671410    1.7920177544   -0.1280999916
 H    2.2847814707    0.1527693322   -0.1324337725
 H    4.4353123191    1.2320789235    0.4454897082
 H    3.4813616425    3.4280367644    1.8154628457
 H    4.5107845199    3.7276356768    0.4305547345
 H    2.2616018119    5.0280483118    0.3724573491
 H    2.6360409775    4.0686723110   -1.0601536911