19

 O    0.5878214921    0.7221717431   -0.8648504412
 C    0.0637685053   -0.2688984785   -0.0168790147
 C    0.0950663749   -0.0924095452    1.5332802308
 C   -1.3543822159   -0.6737670126    1.6169204640
 O   -1.4991123728   -1.9256419916    2.2129606631
 C   -2.4455580225    0.4012611592    1.8023542362
 C   -2.3433287860    0.7348221368    0.2807822070
 C   -1.4544034881   -0.5317722801    0.0527439783
 O   -2.0023361361   -1.5482025966   -0.7291780714
 H    0.2050793540    1.5689072285   -0.6116398030
 H    0.5600876733   -1.2013907027   -0.3023326809
 H    0.8534378268   -0.6841202414    2.0498387131
 H    0.1762305443    0.9512245326    1.8550337994
 H   -1.2691569757   -1.8454747977    3.1454196896
 H   -3.4047295344   -0.0619059784    2.0467357398
 H   -2.2422272337    1.2086429406    2.5122769422
 H   -3.2887834878    0.6773192425   -0.2601718300
 H   -1.8700710593    1.6942558760    0.0463148041
 H   -1.8337432082   -1.3346499248   -1.6542176163