18

 O   -0.0257324229    0.1050931796   -0.1622152475
 C    0.0198837602    1.2933212903   -0.0211708032
 N   -0.9994156435    2.2713581761    0.0167321485
 C   -0.0298697215    3.3662699055    0.1131344946
 C    1.1037881389    2.3472676307    0.1516455913
 C    0.9632824215    3.3375710222   -1.0017688807
 C    0.6999030550    3.1304860663   -2.4997843528
 C    1.3771393939    4.5110219262   -2.7519130947
 C    1.9360336167    4.4888603312   -1.2979728460
 H   -1.7796112340    2.2675383255   -0.6315271377
 H   -0.2028360007    4.2041784649    0.7771441695
 H    1.9840170003    2.3040206579    0.7778901253
 H    1.2743463759    2.2968095912   -2.9131739726
 H   -0.3423482529    3.0207205693   -2.8103493709
 H    2.1126488910    4.5555780800   -3.5568687173
 H    0.6471069304    5.3098050185   -2.9018218021
 H    1.8236709383    5.3974908562   -0.7001396787
 H    2.9828547435    4.1736238185   -1.2570085850