20

 C   -0.0451049106    1.6502985043    0.0262325115
 C    0.1370829350    0.1368481552    0.0951702776
 C    1.3650889126   -0.7198298632   -0.2058148785
 C    2.6826111140   -0.2235197626    0.4476187144
 C    2.0631274957   -0.2442469455    1.7914687880
 N    2.4547238103    1.0405581674    1.1822557271
 C    3.6804338342    1.5889940003    1.7574337934
 C    0.7184593691   -0.7455900382    1.1698297594
 O    0.0323730736   -1.8012239765    1.7462557339
 H    0.7250840896    2.1233825496   -0.5845567826
 H   -1.0208859145    1.8833623803   -0.4151817476
 H    0.0018950661    2.1138893414    1.0130289972
 H   -0.7197948432   -0.4032586787   -0.3094074503
 H    1.3497075357   -1.4811968512   -0.9755782474
 H    3.6821374765   -0.5092603602    0.1449391915
 H    2.4679852174   -0.5740015929    2.7405051029
 H    4.4049594032    0.8208734069    2.0789394198
 H    4.1682256620    2.2299172298    1.0162750393
 H    3.4254016665    2.2023607126    2.6274154844
 H   -0.6467620433   -1.4372758988    2.3257544560