17

 C    0.0865636416    1.6130567049    0.0076677525
 C    0.0166331270    0.0804065202    0.0318466984
 C    0.7919544621   -0.4973996141    1.2482054013
 O    0.5739599967   -1.8706369818    1.4352563099
 O   -1.3714601513   -0.3532712847   -0.0002966869
 C   -2.1364002238   -0.2863816357    1.1073146247
 O   -3.2838450413   -0.6182189841    1.0982425705
 C    0.6020288727   -0.4930064444   -1.1846515753
 C    1.1335720620   -0.9822550523   -2.1444517578
 H    1.1254428871    1.9462378408   -0.0614591211
 H   -0.4613470419    1.9966482248   -0.8551095878
 H   -0.3533167787    2.0291848924    0.9189225093
 H    1.8532592382   -0.2521862741    1.0924810864
 H    0.4776046565   -0.0020115181    2.1709768210
 H    0.7972987888   -2.3212026530    0.6114904690
 H   -1.6172190095    0.1033341996    1.9978859616
 H    1.5843418138   -1.4012259204   -3.0109257756