15

 C    0.0865040835    1.3122082195    0.4042396169
 C   -0.2200184124    0.0106136707   -0.3324857849
 C    0.8659970349   -0.3770842374   -1.3020268852
 O    1.8512269677    0.2283339304   -1.5814093858
 O    0.5658368255   -1.6407695967   -1.8371113469
 C    1.2529864731   -2.1019360347   -2.9219833816
 N    1.3761580028   -1.4344947818   -3.9828334215
 C    1.7442736028   -3.4500455940   -2.7107962072
 N    2.1480790265   -4.5267014747   -2.5905399169
 H    1.0056281161    1.2251242880    0.9890548739
 H    0.2193070296    2.1377319910   -0.2989724767
 H   -0.7321639400    1.5630178903    1.0833752685
 H   -0.3657567305   -0.8280564783    0.3578051025
 H   -1.1525843979    0.0794274973   -0.9063342344
 H    1.8944254185   -1.9513064797   -4.6921772608