21

 C    0.0076198523    1.5686926149    0.0096217019
 C    0.0624010398    0.0392290646    0.0048434738
 C    0.6840501379   -0.5174187143   -1.2882269729
 C    0.9481359133   -1.9979830621   -1.2155755414
 C    0.9170359087   -2.6963898739   -0.0807327092
 C    0.6428121022   -2.0841206915    1.2694101480
 C    0.7765591433   -0.5497370357    1.2568669752
 C    2.2407365914   -0.1455736582    1.2965113769
 O    2.6510115803    0.8794241682    1.7815073533
 H    1.0091165601    2.0084391090    0.0123423343
 H   -0.5225524854    1.9355608936   -0.8758122029
 H   -0.5170813702    1.9426282190    0.8945844942
 H   -0.9676872661   -0.3391174757    0.0560464011
 H    0.0148002264   -0.3026370210   -2.1314950691
 H    1.6175738978    0.0171399651   -1.5235983907
 H    1.1711869972   -2.5036026738   -2.1522062871
 H    1.0995310481   -3.7680551504   -0.1021970917
 H   -0.3650989735   -2.3601463552    1.6091675014
 H    1.3250342706   -2.5150649342    2.0150657617
 H    0.3133108753   -0.1149940165    2.1493607089
 H    2.9432031704   -0.8742802322    0.8301009344