21

 O   -0.0855282812    1.4440410816    0.0304021022
 C    0.0156189756    0.0259840510    0.0138181819
 C   -1.3971502587   -0.5499060795   -0.0179375811
 C   -2.1723130395   -0.0925837685   -1.2645241051
 O   -3.4399232332   -0.7151117063   -1.3319559463
 C   -3.3394297570   -2.0976693389   -1.6252660245
 C   -2.4012424446   -2.8623609685   -0.6914041384
 C   -0.9300974307   -2.9592514898   -1.0196224854
 C   -1.3922120575   -2.0654238316    0.1052941319
 H    0.8025515241    1.8112656567    0.0075547173
 H    0.5775065063   -0.3229105912   -0.8676045723
 H    0.5440762406   -0.3471253805    0.9058892612
 H   -1.9352975611   -0.1481556506    0.8501957188
 H   -2.3461265597    0.9835720149   -1.2202528953
 H   -1.5910871139   -0.2997063761   -2.1814448549
 H   -4.3556570416   -2.4917504299   -1.5381100979
 H   -3.0217010448   -2.2277545838   -2.6741952488
 H   -2.8467012441   -3.7191526948   -0.1967406497
 H   -0.3988817382   -3.8694764887   -0.7634400441
 H   -0.5977112149   -2.5023140002   -1.9473461562
 H   -1.1818026659   -2.4282079456    1.1078351567