12

 N    0.0373137483    1.3296314044   -0.1608807971
 C   -0.0576822315   -0.0088890246   -0.0364027084
 C   -1.1847678755   -0.7713920684    0.0527191551
 C   -1.0240434355   -2.1793624816    0.1592579837
 N    0.0905380354   -2.8357302022    0.1846592186
 O    1.2518447129   -2.0427902306    0.0983010535
 C    1.2548561055   -0.6919485224   -0.0067461759
 O    2.3037870660   -0.0927434146   -0.0690022002
 H    0.9655313755    1.7227811851   -0.1533193492
 H   -0.7662407209    1.9293747249   -0.1137724219
 H   -2.1784313675   -0.3385518104    0.0414715800
 H   -1.8953732528   -2.8247521295    0.2292990018