23

 C    0.1148614009    1.5488972258    0.1040276524
 C    0.2221567569    0.0221134354    0.0991585471
 C    0.4503963881   -0.5514403053   -1.3136612162
 C    0.5558547024   -2.0480901760   -1.3511389792
 C   -0.3131550095   -2.8973500421   -1.9090325967
 C    0.1414201342   -4.3335007758   -1.8469984133
 O    0.4807399511   -4.8416354084   -3.1413855176
 C    1.3350027943   -4.2790874339   -0.8547027516
 C    1.7355829880   -2.7879373348   -0.7468594965
 H    1.0297583672    2.0117856141   -0.2825548631
 H   -0.7169564319    1.8896975905   -0.5224435218
 H   -0.0509771916    1.9328921454    1.1153154732
 H    1.0408650418   -0.2892017619    0.7589314757
 H   -0.6920069050   -0.4173495239    0.5164113127
 H   -0.3668578912   -0.2252544390   -1.9680366707
 H    1.3724089710   -0.1113526714   -1.7219377460
 H   -1.2178312522   -2.6066674521   -2.4334898289
 H   -0.6381250610   -5.0176475496   -1.4958096654
 H    1.0102833850   -4.1657441267   -3.5789648327
 H    1.0152565197   -4.6494413117    0.1240407142
 H    2.1445497867   -4.9269087938   -1.1993985298
 H    2.6566592995   -2.5505835374   -1.2980008480
 H    1.9267031555   -2.4899154373    0.2900971822