16

 C   -0.1983303452    1.4656537218   -0.1436916020
 C   -0.1025794629   -0.0408090674   -0.3166845870
 O    0.6374278188   -0.5617700340   -1.1300785166
 N   -0.9201299639   -0.7696317207    0.5067456829
 C   -1.0304859757   -2.2156469961    0.3777027621
 C   -2.4043263636   -2.6582906239    0.1755254258
 C   -3.5494069202   -3.0222865113    0.0323688458
 C   -4.8371108665   -3.4293656314   -0.1333079740
 C   -5.9799741691   -3.7905775495   -0.2790092431
 H    0.8047188860    1.8901366301   -0.2112757596
 H   -0.7901699136    1.8786560154   -0.9667193041
 H   -0.6586556169    1.7661237108    0.8011462735
 H   -1.5658383902   -0.2966510777    1.1169694320
 H   -0.3990928559   -2.4859445573   -0.4761907864
 H   -0.6105100363   -2.7177312638    1.2604572368
 H   -6.9843921249   -4.1089852549   -0.4096418461