19

 C   -0.0839089226    1.4026529822   -0.0363681976
 O    0.0378265094    0.0002790934   -0.0043076942
 C    0.6053426810   -0.5273278662   -1.1754660878
 C    0.6065460097   -2.0681584135   -1.0522708170
 C   -0.7576624263   -2.6046294234   -0.9968293141
 C   -1.8750152272   -3.0425779707   -0.9598530248
 C    1.3818602969   -2.6649933976   -2.1445649460
 C    2.0269432916   -3.1289933051   -3.0478545145
 C    2.8006409372   -3.7061165334   -4.1375813976
 H    0.8949649986    1.8960343283   -0.1457983171
 H   -0.7310414286    1.7365012294   -0.8623689089
 H   -0.5313387757    1.7119524478    0.9110112069
 H    0.0343880542   -0.2303997898   -2.0686054596
 H    1.6436001820   -0.1830050304   -1.3058718019
 H    1.1017650118   -2.2948053081   -0.0970867512
 H   -2.8620423788   -3.4319070825   -0.9221489446
 H    2.2014096433   -4.4214357849   -4.7113790419
 H    3.1484889268   -2.9330117841   -4.8314296923
 H    3.6825966668   -4.2366830013   -3.7624392758