20

 C   -0.1810957622    1.5355160537    0.0651479193
 C   -0.0441906067    0.0241351780    0.1278519928
 O   -1.3364497650   -0.5483830356    0.0626842260
 C   -1.3244999491   -1.9562926479    0.1217344853
 C   -2.7565201843   -2.4228159044    0.0509392640
 N   -3.3002341581   -2.7693316492   -1.2521226448
 C   -3.1598504920   -3.8412609211   -0.2439716196
 C   -2.1617906218   -4.9010321700   -0.5633015610
 O   -2.1709573288   -5.9979782110   -0.0636221248
 H    0.8039685747    2.0091045657    0.1121527274
 H   -0.6681277552    1.8376915453   -0.8661937475
 H   -0.7830335590    1.9017116535    0.9016467685
 H    0.5751940004   -0.3442782152   -0.7070716338
 H    0.4590144171   -0.2824256578    1.0607813521
 H   -0.7441661578   -2.3805281831   -0.7117424745
 H   -0.8628390099   -2.3012847821    1.0633788177
 H   -3.4061345935   -1.9022675218    0.7532315323
 H   -4.2737915416   -2.4916340244   -1.3374501380
 H   -4.0393933820   -4.2109136412    0.2777995496
 H   -1.4018291053   -4.6012154212   -1.3171496610