19

 C   -0.0473613173    1.5999376198    0.0776769982
 C   -0.0415307053    0.0809786816   -0.0303911271
 C    0.3960600839   -0.4049866350   -1.4151487552
 C    0.4197105097   -1.9229579070   -1.5658337457
 O    1.5456204650   -2.5624252826   -0.9479114997
 C    1.6807833468   -2.6338822121    0.3974559997
 O    2.5237160604   -3.3481851473    0.8664109258
 C    0.7569980734   -1.7751193187    1.2711323120
 O    0.8243711786   -0.3947914898    0.9941447686
 H    0.9567559210    1.9973443873   -0.0989649607
 H   -0.7283415353    2.0367302734   -0.6586213125
 H   -0.3665349698    1.9080665382    1.0762586856
 H   -1.0590699718   -0.3028529851    0.1662311314
 H   -0.3003452388   -0.0044952395   -2.1623999774
 H    1.3907810845   -0.0082836489   -1.6491742360
 H   -0.5129734902   -2.3707183724   -1.1976196797
 H    0.5176660868   -2.1926164457   -2.6195428770
 H   -0.2784148524   -2.1481123775    1.2016584416
 H    1.1040227710   -1.9197083287    2.2954779480