17

 C    0.0520868870    1.3342264894   -0.0158112316
 O    0.0026715259   -0.0761251144   -0.1447110594
 C   -1.2311356736   -0.6229175366   -0.0152293534
 C   -2.4589688257   -0.0833166069    0.2180617851
 O   -3.3897593528   -1.0832772970    0.2591576928
 C   -2.7473939200   -2.2763575823    0.0494167134
 C   -3.5582992408   -3.5184310236    0.0501347215
 C   -1.4190843159   -2.0402807034   -0.1239167006
 O   -0.4403515360   -2.9570149834   -0.3567059366
 H    1.0949691078    1.6285354461   -0.1412421694
 H   -0.5622068098    1.8193532720   -0.7858322588
 H   -0.3025574215    1.6493579022    0.9744181625
 H   -2.8229602705    0.9172591319    0.3677693496
 H   -4.3260835762   -3.5045922110   -0.7325168648
 H   -2.9033531071   -4.3743655502   -0.1289989288
 H   -4.0683410059   -3.6717134615    1.0085695209
 H    0.3907409750   -2.4746068211   -0.4327953124