21

 C    0.0939132341    1.5587551984    0.0205073104
 C    0.0225326582    0.0317674612   -0.0278145874
 O    0.7921516596   -0.5452212313    1.0278217308
 C   -1.4126382262   -0.5188629610   -0.0176020015
 C   -2.2505636733   -0.0541717266   -1.2197147488
 O   -3.5240514138   -0.6834303008   -1.2267486149
 C   -3.4040591657   -2.0814154032   -1.2189713017
 O   -2.7445929448   -2.5617317438   -0.0813000352
 C   -1.4183899502   -2.0563155719   -0.0078517849
 H    1.1379540297    1.8755460245    0.0887869691
 H   -0.3449633230    2.0186163804   -0.8700996442
 H   -0.4415191664    1.9476836778    0.8958233202
 H    0.5231783015   -0.3173312487   -0.9408121514
 H    0.4380667598   -0.2144672640    1.8612958552
 H   -1.9191693963   -0.1730725567    0.8949562042
 H   -2.4435018717    1.0206519543   -1.1950922313
 H   -1.7126662641   -0.2837687885   -2.1574781249
 H   -4.4166714035   -2.4891450053   -1.2038320739
 H   -2.8690986712   -2.4141686568   -2.1309198032
 H   -0.8254048029   -2.4322434019   -0.8606106270
 H   -0.9752095398   -2.4495549061    0.9070912005