13

 C    0.0321305378    1.4900836217    0.0097809379
 N   -0.0203477277    0.0340836079    0.0023494004
 C   -0.0399970213   -0.6932263392   -1.1656759393
 N   -0.0202999626   -1.9698908816   -1.2287932894
 C    0.0656933944   -2.7043359713   -0.0129604976
 O    0.1876732366   -3.9013096038   -0.0201934316
 N   -0.0049284452   -1.9830529108    1.2116925923
 C   -0.0253205363   -0.7057816694    1.1626050319
 H    1.0645666935    1.8546820144    0.0030867776
 H   -0.4862184924    1.8785604879   -0.8694037683
 H   -0.4712211234    1.8687900499    0.9018319746
 H   -0.0879482773   -0.0965027472   -2.0770643448
 H   -0.0617404061   -0.1189284384    2.0809102062