20

 C   -0.0078370985    1.5546609484   -0.0769518437
 C   -0.0213213334    0.0182370409    0.0069278797
 C    0.6859758230   -0.5087231708    1.2320657622
 C    2.0220483346   -0.9169567644    1.1849910891
 N    2.7203372016   -1.3633009467    2.2277566845
 C    2.1072863550   -1.4332566968    3.4178925884
 C    2.9317468560   -1.9442749381    4.5709907573
 C    0.7716356841   -1.0561370344    3.5753099749
 C    0.0603674160   -0.5926086198    2.4756557453
 H    1.0178455840    1.9351414341   -0.1115203496
 H   -0.5310236182    1.9021919832   -0.9733333663
 H   -0.4967518168    1.9999361602    0.7955229519
 H   -1.0595560473   -0.3343995375    0.0035772464
 H    0.4508138999   -0.3967383710   -0.8908897711
 H    2.5570349257   -0.8828023387    0.2361704688
 H    2.3605102945   -1.9590454770    5.5025475930
 H    3.2899360063   -2.9581897541    4.3651543457
 H    3.8177307505   -1.3173640166    4.7139686032
 H    0.2971160460   -1.1308026014    4.5481076462
 H   -0.9810917730   -0.3004794395    2.5822449640