22

 C    0.2582154787    1.7917666691   -0.1553477538
 C    0.0449484325    0.2738354513   -0.1391578130
 C    0.9091368422   -0.4520295969   -1.1687753667
 C    2.4683672705   -0.5423886918   -1.0138468017
 C    2.3911455218   -2.0549994708   -1.2706569388
 C    1.5644542393   -2.7574860607   -0.2305786509
 C    1.5910165859   -2.4862359009    1.2608091610
 C    0.8539746777   -1.9815825769   -1.3135624076
 H    1.2981656557    2.0494380768    0.0742646419
 H    0.0250062908    2.2133250220   -1.1397999941
 H   -0.3775617896    2.2938165913    0.5806522838
 H    0.2386935164   -0.1120444762    0.8666917220
 H   -1.0096842811    0.0502877104   -0.3498143982
 H    0.6985997674   -0.0130538431   -2.1517835732
 H    3.0031815794    0.0033093800   -1.7938353146
 H    2.8848093730   -0.2416683336   -0.0461861927
 H    3.0590729673   -2.5958931001   -1.9310442311
 H    1.4991287308   -3.8238807387   -0.4461022662
 H    1.8275732089   -1.4477875534    1.5003129708
 H    0.6271535557   -2.7229719639    1.7250520417
 H    2.3523431277   -3.1103719727    1.7427230499
 H    0.1771629388   -2.4929327312   -1.9903438685