21

 C   -0.0239552964    1.4927719879    0.0281548407
 C   -0.0367973968    0.0413301049   -0.0898716437
 C   -0.0368503835   -1.1582831274   -0.1953107919
 C   -0.0690700484   -2.6120460012   -0.3051678111
 C   -1.3232933620   -3.2307928113    0.3525854928
 C   -1.3924748871   -4.7380136143    0.1801960508
 C   -0.3653565004   -5.5679980047    0.9212376454
 C   -2.6717379869   -5.3561619500   -0.2016708388
 O   -1.6412468762   -5.1608296156   -1.1730086497
 H    0.8642704672    1.8425254687    0.5662129526
 H   -0.0238029799    1.9736425386   -0.9564809797
 H   -0.9028995947    1.8567411135    0.5720700542
 H   -0.0516511140   -2.9114801144   -1.3603720263
 H    0.8378122784   -3.0319048467    0.1481255822
 H   -1.3392069497   -2.9800383806    1.4195946561
 H   -2.2104483904   -2.7761288442   -0.0976899536
 H   -0.4562078769   -5.4217367938    2.0030185441
 H   -0.5009485922   -6.6293072750    0.7000294629
 H    0.6532793673   -5.2923748452    0.6304645009
 H   -2.8709023431   -6.3939453245    0.0648359661
 H   -3.5580613543   -4.7350255647   -0.3271212337