18

 C    0.0767469808    1.5719229245   -0.1283280753
 C    0.0841450925    0.0615375791    0.0273373336
 N    1.0540727508   -0.6637856057   -0.8329878111
 C    1.3826266644   -1.6018222706    0.2684364701
 C    0.7247867996   -0.6316305373    1.2700542032
 C    1.9341864640    0.0394824611    1.9518434233
 O    3.1287867581   -0.6104103855    1.4819953664
 C    2.8743285515   -1.5935178700    0.5777088695
 O    3.7345529527   -2.2890112546    0.1217420959
 H    1.0876682784    1.9838220207   -0.0691282288
 H   -0.3332658074    1.8481378833   -1.1056184995
 H   -0.5466337898    2.0425925056    0.6400112029
 H   -0.9423019629   -0.3188747133   -0.0852727112
 H    0.6871989226   -1.0878434963   -1.6768930439
 H    0.9893013609   -2.6181918361    0.1832542973
 H    0.0211827714   -1.0358844015    1.9960066272
 H    2.0198195980    1.1055892442    1.7260335451
 H    1.9047492245   -0.0790591876    3.0386896553