18

 C   -0.1159470354    1.4878302423   -0.4424793424
 N   -0.0628327531    0.0328034144   -0.4252333652
 C   -0.9958129283   -0.6074312227    0.1009206307
 C   -1.3130310404   -2.0732422705    0.3204854233
 C   -2.5645484594   -1.5177115375    0.9842145454
 C   -3.9893060447   -1.9637077274    0.9381095955
 C   -3.2144176558   -1.9180121582    2.2547887801
 O   -2.7476203296   -3.0966510122    2.8366391818
 O   -2.1675610724   -0.1575278705    0.7176417239
 H    0.7685189522    1.8833914310    0.0688534475
 H   -0.0657673028    1.8348137690   -1.4804100722
 H   -1.0119705030    1.9103616655    0.0270200981
 H   -1.4679058705   -2.6498715408   -0.5932618071
 H   -0.6285144146   -2.6048763855    0.9832207794
 H   -4.7570799945   -1.2129517784    0.7839102252
 H   -4.1902397143   -2.9368095472    0.5007561572
 H   -3.4789284523   -1.1153283004    2.9435069489
 H   -3.4979121610   -3.5579767809    3.2265752499