19

 C    0.0405018279    1.4676810454   -0.0628011024
 C    0.0195707242   -0.0348446206   -0.0559746065
 C   -0.9074322634   -0.8476054973    0.7839359322
 O   -1.8332349369   -1.7808179577    0.2915469391
 C    0.5730617490   -1.0356700487    0.9970854899
 C    1.3594936560   -1.7683210939   -0.1191894070
 C    0.5161699540   -2.2902952770   -1.2757057791
 C    0.8187366529   -0.8239112414   -1.1533444861
 O    1.5514704779   -0.1245630323   -2.0985003710
 H    1.0462830967    1.8448409371   -0.2709042485
 H   -0.6275892301    1.8715638035   -0.8339516780
 H   -0.2869734578    1.8683749833    0.9015243234
 H   -1.3300625747   -0.2313436808    1.5838918721
 H   -1.9214600486   -2.4764470537    0.9526585249
 H    1.0284512263   -0.8082523256    1.9548217569
 H    2.3817010729   -2.0928004669    0.0226510842
 H    1.1288640757   -2.7653349025   -2.0380821989
 H   -0.4744078461   -2.6991209233   -1.1433140736
 H    1.0073701641   -0.0301907373   -2.8887697215