14

 O    0.0719271349    0.0062120888   -0.0947616287
 C    0.0244837997    1.2129979581   -0.0154403446
 C   -1.1961137877    2.0705343379    0.0362981837
 C   -0.8583929994    3.3703958186    0.0233780710
 C    0.6302344372    3.5396349442   -0.0253637860
 O    1.2333438011    4.5833749787   -0.0473082841
 C    1.1981810651    2.1462679395    0.0001660924
 C    2.4554077744    1.7765439397    0.7236528301
 N    2.4328958315    1.8033143155   -0.7279261038
 H   -2.1933751831    1.6490958773    0.0683791673
 H   -1.5268584938    4.2224882053    0.0492723505
 H    3.0156559729    2.5831696734    1.1872997296
 H    2.4569830397    0.8193863206    1.2382017753
 H    2.3137779577    0.8507663623   -1.0772299726