15

 C    0.0129460506   -1.1970485749   -0.0055336809
 C    0.0362198723    0.0030326671    0.0019450159
 C    0.0226967230    1.4567654241    0.0115241846
 O    1.3591228322    1.9486081694   -0.0010300201
 C    1.4581879934    3.2984511448    0.0061212267
 C    0.4860365801    4.2579394464    0.0238283302
 O    1.0715861653    5.4953245428    0.0244167502
 C    2.4115333124    5.3039999052    0.0070274223
 C    2.7178199703    3.9821893360   -0.0048485575
 H   -0.0003726135   -2.2590371986   -0.0122289529
 H   -0.5205903750    1.8396973608   -0.8661595265
 H   -0.4997189614    1.8281854848    0.9066564820
 H   -0.5887379217    4.2436057034    0.0367252628
 H    3.0131999957    6.1979319895    0.0052825026
 H    3.6952560364    3.5285443591   -0.0194705994