20

 C    0.3000933065    1.4642460258   -0.1888769855
 C   -0.1773427158    0.0285460836    0.0744195286
 C    0.4131583418   -0.5512969439    1.3225522035
 C    0.0903457171   -0.2062265280    2.7895579090
 C    0.5638314092   -1.6474897550    3.1845736591
 C    0.8628152836   -1.9108092938    1.6976236906
 C    0.8874174397   -3.2181835170    0.9745947242
 O    1.8118093113   -0.9023460569    1.3029025438
 H    1.3890407049    1.4936733820   -0.2874292227
 H   -0.1387725338    1.8601717627   -1.1093740346
 H    0.0185049092    2.1328996281    0.6312164665
 H   -1.2715025240    0.0077414804    0.1570505072
 H    0.0919364322   -0.6121709645   -0.7727982111
 H    0.6593861193    0.6287026939    3.2053336985
 H   -0.9757600338   -0.0485395753    2.9734468048
 H    1.4300485246   -1.7175630046    3.8472655612
 H   -0.2482728202   -2.2634800821    3.5797563039
 H   -0.0166064748   -3.7981342842    1.1874975854
 H    0.9593726701   -3.0627982005   -0.1051954388
 H    1.7510907828   -3.8164737806    1.2875425464