21

 O    0.1432604946   -0.1610517513    0.0045470081
 C    0.0926388199    1.0290562692   -0.1773607110
 C    1.2741710062    1.9633980282   -0.0948236786
 C    1.3058339259    3.0355200811   -1.2368272881
 C    1.4202462077    4.3750441737   -0.4734305951
 C    0.0552608693    4.6774489166    0.1881888968
 C   -0.0094364130    3.6388796021    1.3550698331
 C    1.3102868507    2.8461093494    1.1937852640
 C    2.2744793064    3.9641710709    0.7441892728
 H   -0.8751664145    1.5206630930   -0.4363043605
 H    2.1693126474    1.3356570247   -0.1130608595
 H    2.1648571627    2.8669992024   -1.8918533831
 H    0.4089353801    2.9997585600   -1.8659645978
 H    1.8067544145    5.1932386936   -1.0838384126
 H    0.0226680560    5.7019214141    0.5704232438
 H   -0.7728091678    4.5706045421   -0.5190456855
 H   -0.0164273728    4.1422991952    2.3263785016
 H   -0.9028477566    3.0111860411    1.3217286874
 H    1.5970908013    2.2790682611    2.0807164274
 H    3.2700531246    3.5978209688    0.4755516809
 H    2.3779530673    4.7593093841    1.4896372459