19

 C   -0.0112466278    1.5816037211   -0.0098474636
 C    0.0492002253    0.0494518938    0.0070007594
 C    0.8046145900   -0.5804866743   -1.1953521014
 C    1.5159665490   -1.8336031897   -0.6472519759
 O    2.7788376751   -1.9943697257   -1.2618449884
 C    1.5877620710   -1.5440070728    0.8442861909
 C    2.4313008284   -2.3232851666    1.7439690183
 O    3.1664745250   -3.2162755488    1.3641917281
 C    0.7811957992   -0.5323707798    1.1917456076
 H    0.9955879686    2.0120266218   -0.0098003158
 H   -0.5287573457    1.9372408657   -0.9062159599
 H   -0.5472341242    1.9702740361    0.8623835652
 H   -0.9856393380   -0.3268761654    0.0328149987
 H    0.1525019325   -0.7923540411   -2.0453369464
 H    1.5885453588    0.1049710720   -1.5349415767
 H    0.9000239077   -2.7358947698   -0.8057405789
 H    3.2337416502   -2.6839832521   -0.7590700605
 H    2.3766233171   -2.0521480906    2.8201018188
 H    0.6414835878   -0.1675442840    2.2062678004