21

 C    0.2409585628    1.5257610743   -0.2039053426
 C    0.0053530839    0.0589897007    0.0909358065
 O    0.6959681564   -0.8147583735   -0.8478652985
 C    1.2937728728   -1.5441426218    0.2204811395
 C    1.4061677684   -3.0326195089    0.1821364594
 C    2.6502491810   -2.1576016439    0.0821327994
 C    0.7099801540   -0.6312313783    1.2951603283
 C    1.7014902928    0.1758841073    2.1113625628
 O    0.9592012745    1.0854376456    2.9126683274
 H    1.3086669939    1.7553283596   -0.2565320572
 H   -0.2062141287    1.7866866041   -1.1681661670
 H   -0.2118892762    2.1445285451    0.5758012246
 H   -1.0713103373   -0.1549490403    0.0738263937
 H    1.2389163143   -3.5938313553    1.0962483829
 H    1.0705165033   -3.5257856467   -0.7237908781
 H    3.1245369960   -2.0742959416   -0.8899976332
 H    3.3345442706   -2.1287620628    0.9241223126
 H    0.0116891805   -1.1230989595    1.9772402028
 H    2.2960603916   -0.5108772396    2.7359687664
 H    2.4056107820    0.7018716840    1.4502139296
 H    1.5796879832    1.6301774515    3.4056595406