18

 O   -0.2257864581    1.3510169041   -0.1211670464
 C   -0.0414510949   -0.0318584500   -0.0517086817
 C    0.4342311118   -0.7751748805    1.2241000907
 C   -0.3719145223   -1.9224730327    0.6110758482
 N    0.0444958437   -2.1413806680   -0.8812553269
 C   -1.3858030621   -1.7883102557   -1.2615297768
 C   -1.3719641224   -0.9112951582   -0.0167685400
 O   -2.4550681059   -0.3289320118    0.6123975401
 C    0.7070754227   -0.8186813460   -1.1354874036
 H    0.4258523675    1.7869457585    0.4364252402
 H    1.5086143787   -0.8793000320    1.4015110472
 H   -0.0773048340   -0.4171820702    2.1216678549
 H   -0.6296701015   -2.8474190093    1.1209200681
 H   -1.5060331196   -1.3599408355   -2.2616450829
 H   -2.0301632895   -2.6644502072   -1.1489416421
 H   -2.3310504985    0.6284943381    0.5463522970
 H    0.5150063634   -0.4789098816   -2.1553133026
 H    1.7877544111   -0.8782074122   -0.9762976835