13

 C    0.1503136496   -3.7526529918   -0.0200729267
 C    0.0770966460   -2.5463328717   -0.0124024330
 C   -0.0011641043   -1.1920184064   -0.0038443833
 C   -0.0794587045    0.0195584376    0.0039177477
 C   -0.1451561026    1.4206100935    0.0125472147
 C   -1.2208566483    2.3032192061    0.0316033780
 C   -0.6372062181    3.5807500129    0.0309947575
 N    0.6956015674    3.5201709554    0.0131199024
 N    0.9716313836    2.2122933405    0.0022334994
 H    0.2117678216   -4.8126747473   -0.0267713527
 H   -2.2644301514    2.0372053349    0.0438681512
 H   -1.1279142956    4.5424843247    0.0427845372
 H    1.9295547066    1.9025857316   -0.0120730723