14

 C   -0.0321588811    1.5402159847    0.0107445588
 C    0.0338174132    0.0074585217    0.0018071612
 C    0.7137557194   -0.5085640400   -1.2729694853
 C    0.7384899858   -0.5222088643    1.2575090679
 H    0.9752273599    1.9741434099    0.0052836184
 H   -0.5619676933    1.9223232554   -0.8683541813
 H   -0.5481723936    1.9126841393    0.9020803851
 H   -0.9975252478   -0.3731057842    0.0097729651
 H    1.7507002148   -0.1558678440   -1.3326963135
 H    0.7344669137   -1.6032828803   -1.2993969612
 H    0.1936701054   -0.1608558933   -2.1719550787
 H    0.2361199025   -0.1838201713    2.1700525984
 H    0.7596408325   -1.6171315293    1.2722610065
 H    1.7763586586   -0.1698531842    1.3005301884