19

 C    0.0098779650    1.6099759402    0.0017659263
 C    0.0013237609    0.0809061290   -0.0195977298
 O    0.7743017376   -0.4581363496    1.0460898688
 C   -1.4191292978   -0.5181136462    0.0042556174
 N   -2.2196032115   -0.0063508009   -1.0965595896
 C   -1.4713300978   -2.0578721029    0.1526818130
 O   -2.0980078173   -1.9212042722    1.4715354440
 C   -2.0454859381   -0.5520058683    1.4049787755
 N   -2.3936746936    0.3263471736    2.2342541054
 H    1.0425795258    1.9622107310    0.0691200206
 H   -0.4282139136    2.0262657411   -0.9098238360
 H   -0.5488681217    1.9889860561    0.8645796775
 H    0.4850445623   -0.2742552675   -0.9366005682
 H    0.4620240605   -0.0527457242    1.8643267738
 H   -3.1315960913   -0.4550783761   -1.1035350193
 H   -2.3979731250    0.9840260939   -0.9572402671
 H   -2.1322548846   -2.5770958314   -0.5455567853
 H   -0.5061317592   -2.5576303487    0.2372841375
 H   -2.7887950805   -0.0886481169    3.0808185755