12

 C    0.1096246311    1.4477491382    0.0769561988
 N    0.2000157078   -0.0004166062    0.0694159635
 C    0.5081580285   -0.6367194827   -0.9636295997
 O    0.8227192651    0.0007284199   -2.1643736398
 N    0.8831667786   -0.7076452874   -3.3655827306
 N    0.8808488024   -1.9310499664   -3.3925781883
 O    0.8284817435   -2.6969820242   -2.2041467263
 C    0.6014456305   -2.1252823299   -0.9644670896
 O    0.5038693170   -2.8369652597   -0.0188960819
 H    1.0058917546    1.8444350205    0.5680699054
 H    0.0228341215    1.9010570623   -0.9148634712
 H   -0.7458648707    1.7323777754    0.6949013597