13

 O    0.0329874945    1.3652109502    0.2593223699
 C    0.0576495791    0.0308458329    0.0410136848
 C    0.1153393065   -0.7548844355   -1.0878711632
 O    0.1652816344   -0.2875563875   -2.3624758240
 N    0.1161535543   -2.0681750924   -0.7648715631
 C    0.0596178764   -2.1199227152    0.5638603493
 N    0.0222023015   -0.8465215873    1.0885909378
 C    0.0374643912   -3.2677866369    1.3765636703
 C    0.0170252667   -4.2318585653    2.0998326395
 H    0.0667896442    1.8027049296   -0.5988132473
 H    0.1987289150   -1.0604939472   -2.9383134766
 H   -0.0230352807   -0.5989509685    2.0632830601
 H   -0.0003653031   -5.0901714968    2.7243661125