23

 C    0.0213255008    1.4679880976    0.0009248411
 C   -0.0113827436   -0.0411588764   -0.0172264846
 C   -0.6269604560   -0.8013734573    1.1374152241
 C    0.8558405682   -0.9193162651    0.8663463976
 C    1.3718224303   -1.9359068493   -0.1700769604
 C    0.1227643768   -2.2820534455   -1.0197400830
 C    0.1792326084   -0.7696814353   -1.3831120683
 C   -0.5486749506   -0.2204750862   -2.5904310400
 C    1.7441032934   -0.9690494970   -1.3446427671
 H    0.8590860009    1.8622515794   -0.5866127459
 H   -0.8997082738    1.8996051498   -0.4093731367
 H    0.1312639557    1.8443836587    1.0230661667
 H   -0.8917425083   -0.1908972648    1.9963677193
 H   -1.3002491844   -1.6374331293    0.9926549939
 H    1.5613111556   -0.4971597557    1.5746400540
 H    2.0538136486   -2.7111563853    0.1803849902
 H    0.3857879983   -2.8994821828   -1.8822324348
 H   -0.7676600442   -2.6971315715   -0.5457216269
 H   -1.6351021700   -0.2742507156   -2.4528699507
 H   -0.2917611831    0.8279848419   -2.7765158003
 H   -0.2988088730   -0.7882160196   -3.4928116205
 H    2.3632906316   -0.0986752169   -1.1078796536
 H    2.1330377983   -1.4822148838   -2.2296277839