18

 O   -0.1705997489    1.4543871557    0.0107755575
 C    0.0240327682    0.0493994320    0.0019399480
 C   -1.3593362960   -0.5861577090    0.0121935181
 C   -1.3256947867   -2.0977770366    0.0042755092
 O   -0.2906142901   -2.7301294969   -0.0094851622
 C   -2.6731974462   -2.8076243665    0.0145907008
 N   -2.4750118814   -4.2330557123    0.0065046746
 C   -3.5092598844   -5.1074602177    0.0069553991
 O   -4.6801027743   -4.7859556808    0.0166089205
 H    0.6931975349    1.8767763946    0.0044293732
 H    0.5758373159   -0.2824131023   -0.8889552366
 H    0.5929560245   -0.2911412641    0.8786707833
 H   -1.9214810675   -0.2459191712    0.8917663704
 H   -1.9382806791   -0.2373076911   -0.8530114003
 H   -3.2457503210   -2.4856605137    0.8958045158
 H   -3.2628523341   -2.4783360105   -0.8525587376
 H   -1.5134129301   -4.5431774179   -0.0049279086
 H   -3.1655279839   -6.1604571517   -0.0020300950