15

 N   -0.1798292337    1.5454264606   -0.0756054179
 C   -0.0424146095    0.0774441638   -0.0521523979
 C   -1.3470420165   -0.5473296952    0.1954788516
 C   -2.4159839412   -1.0572243721    0.3903031040
 C    0.5858690210   -0.4886219660   -1.2609340528
 C    1.1276532147   -0.8899113560   -2.2605417117
 C    1.8100017032   -1.3093629645   -3.4784894560
 N    1.5338182227   -2.5928420722   -3.8478689756
 O    2.5583232490   -0.5769593458   -4.0961898785
 H    0.7310048232    1.9496162073   -0.2792952210
 H   -0.7851099320    1.8034006499   -0.8507658206
 H    0.6119833507   -0.1618744534    0.7987675322
 H   -3.3619278815   -1.5058217479    0.5696112949
 H    0.8726246805   -3.1561295660   -3.3425978905
 H    1.9408515894   -2.9428983625   -4.6996234002