23

 C    0.0872453587    1.5518008393   -0.2172614998
 C    0.0008765890    0.0245708718   -0.2600453806
 C    0.9446582607   -0.6053178841   -1.2936305134
 O    2.3056969377   -0.2299413255   -1.0427250426
 C    0.7922523756   -2.1097655269   -1.3660639582
 C   -0.3061513128   -2.7188945925   -2.2208046736
 C    1.1214982904   -2.8666995097   -2.6363037552
 O    1.5055412175   -2.1777364823   -3.7804612900
 C    2.9092116475   -1.9700477194   -3.8539093675
 H    1.1138256045    1.8742755602   -0.0253515540
 H   -0.2236075206    1.9889216513   -1.1726883070
 H   -0.5579786350    1.9643399828    0.5642596890
 H    0.2385588466   -0.3929024186    0.7299752635
 H   -1.0241538657   -0.2936706985   -0.4844702588
 H    0.7308528906   -0.1856465665   -2.2826502941
 H    2.5639083327   -0.6214467076   -0.2005424490
 H    1.0128263154   -2.6249977328   -0.4314473998
 H   -0.8451421017   -3.5861002816   -1.8567126618
 H   -0.9011484282   -2.0314603966   -2.8134666755
 H    1.5923416473   -3.8454707493   -2.5248363604
 H    3.2661796412   -1.3758091530   -3.0050003876
 H    3.4500908455   -2.9286064073   -3.8791320429
 H    3.1012265832   -1.4351257632   -4.7869836006