20

 C    0.1979828517    1.3656394395   -0.3934092639
 C   -0.0164079011   -0.0740763391    0.0814382528
 C    0.6386465314   -0.3227404199    1.4552926587
 C   -1.5172189378   -0.3767610056    0.1924396375
 O   -2.3360424885    0.4539219597    0.4922436237
 N   -1.8267251719   -1.7242323122   -0.0495035011
 C   -3.0769716261   -2.3583338461    0.0457355478
 C   -3.0058024284   -3.8395786963   -0.2997559712
 O   -4.0920917281   -1.7974084227    0.3642433079
 H    1.2651321073    1.6058590065   -0.4139070173
 H   -0.2083558669    1.5189603210   -1.3972548108
 H   -0.3089904836    2.0612980532    0.2791465239
 H    0.4326492502   -0.7640690145   -0.6459275103
 H    0.4984073022   -1.3543001490    1.7939126962
 H    1.7136250961   -0.1255928651    1.4058188147
 H    0.2023205146    0.3413325277    2.2076217404
 H   -1.0524322037   -2.3125795317   -0.3171020026
 H   -2.3172899721   -4.3655068827    0.3705975547
 H   -4.0025055695   -4.2673216764   -0.2004159012
 H   -2.6495495657   -3.9851422262   -1.3253660799