18

 C   -0.0288984408    1.5538614412   -0.0261459154
 C   -0.0051294271    0.0567150457    0.0121970519
 C    0.4546559284   -1.0055976518   -0.9912550865
 C    1.2611923822   -1.7122833098    0.0925050574
 C    0.4952309772   -0.8578126907    1.1737032921
 C   -0.7024196535   -1.7109361881    1.5962257674
 O   -0.8584444727   -2.3417034426    2.6170583166
 N   -1.5329935356   -1.7126885240    0.4921856017
 C   -1.0133981141   -0.8846193949   -0.5609722360
 H    0.9681567530    1.9758310326    0.1433108177
 H   -0.3806570818    1.9129046089   -0.9990651237
 H   -0.6976183632    1.9604491064    0.7414664741
 H    0.7396492132   -0.8835782085   -2.0305910099
 H    1.1953996345   -2.8024003273    0.1750257384
 H    2.3117764035   -1.4168879862    0.0551245854
 H    1.0731094969   -0.4499299104    1.9987512716
 H   -2.2022498342   -2.4526276161    0.3529467495
 H   -1.7253749659   -0.5262939546   -1.2948591626