20

 C    0.0756505294    1.5278280366    0.0218399600
 C    0.0842849149    0.0033226401   -0.0099031900
 O    1.1502607799   -0.5973590932   -0.0489692097
 C   -1.2154504036   -0.6817243010    0.0122521517
 C   -1.1994908222   -2.0403912457   -0.0195720890
 N   -2.3052889236   -2.8247530535   -0.0045941080
 C   -3.6228083700   -2.2467167559    0.2121717300
 C   -3.6832951277   -0.8619353216   -0.4412327136
 C   -2.5445102813    0.0452625471    0.0592458018
 H    1.1034752943    1.8841033293    0.0972704718
 H   -0.3772702661    1.9334235641   -0.8905357427
 H   -0.5101947482    1.9093971070    0.8655117544
 H   -0.2432054789   -2.5499563851   -0.0772095293
 H   -2.1917354544   -3.8182109426    0.0961905028
 H   -4.3757866795   -2.9133169544   -0.2200817671
 H   -3.8381008941   -2.1617909264    1.2886907943
 H   -3.5988328746   -0.9855174252   -1.5268064429
 H   -4.6583368915   -0.4085079089   -0.2389753862
 H   -2.7713426572    0.3914712703    1.0784769131
 H   -2.5179502456    0.9493559489   -0.5589158015