19

 C   -0.0910650902    1.5785186093   -0.0717003074
 C   -0.2309902433    0.0776343727   -0.2751162403
 C   -0.0711769535   -0.8611953815    0.8902193408
 C   -1.4321739997   -0.6537058162    0.2696918394
 C    1.3331111191    2.0461143752   -0.0421956089
 C    2.0412243283    2.7008633188   -1.0180192433
 N    3.3083403151    2.8789544725   -0.5032274374
 C    3.3118173464    2.3351610856    0.7455661196
 N    2.1434591650    1.8260810428    1.0556877736
 H   -0.6311253384    2.1087460897   -0.8658615988
 H   -0.5719639265    1.8534498569    0.8749980207
 H    0.1547164876   -0.2758046260   -1.2281178545
 H    0.4302264097   -1.8085450324    0.7252795697
 H    0.1249298363   -0.4195884654    1.8607027851
 H   -2.1633923366   -0.0783234371    0.8288460982
 H   -1.8603016815   -1.4575630120   -0.3194073012
 H    1.7719480013    3.0500598643   -2.0011295627
 H    4.0784913281    3.3366324540   -0.9603890084
 H    4.1882329227    2.3467086988    1.3766598659