17

 C   -0.1040876452    1.5664531298    0.0115058610
 C    0.0412749375    0.0472971571    0.0408388679
 N    1.1499803073   -0.5070468306   -0.8354790868
 C    1.6692692762   -1.2935995317    0.3098189734
 C    2.1805744455   -0.3135789508    1.3313047300
 C    0.7068570917   -0.6386147508    1.2697219513
 O   -0.0024629198   -1.1739098613    2.3180244823
 C   -1.2385262022   -0.5995250426   -0.2637074448
 N   -2.2443597006   -1.0958924992   -0.5444993102
 H    0.8560501222    2.0356777875    0.2350771969
 H   -0.4289479520    1.9021885910   -0.9769754695
 H   -0.8457430001    1.8956675171    0.7458564607
 H    0.7597590480   -1.1110578173   -1.5531131231
 H    2.0133304719   -2.3143530073    0.2095232676
 H    2.6673960878   -0.7665032415    2.1895865307
 H    2.5863504983    0.6404109460    1.0077496383
 H   -0.0012145165   -0.5464295255    3.0500834545