16

 C   -0.0888816392    1.1593151985    0.9639739881
 C   -0.0546188712   -0.0379416251    0.0344434937
 O   -1.2516262862   -0.8057779747    0.2625211124
 C   -1.3976716178   -1.9191530667   -0.4807680836
 N   -0.5562437432   -2.3046917437   -1.3413732506
 C   -2.6913891822   -2.6731329716   -0.1766752506
 N   -3.4700709914   -2.1118979799    0.7774004756
 O   -2.9530328752   -3.6976155342   -0.7763404740
 H    0.8085843315    1.7670427222    0.8163532517
 H   -0.9632515863    1.7859336881    0.7651825999
 H   -0.1200129032    0.8431606242    2.0107533026
 H   -0.0235315712    0.2557622520   -1.0197564284
 H    0.8126880690   -0.6805986420    0.2169974591
 H   -0.9129394008   -3.1695085457   -1.7546692460
 H   -3.1886446200   -1.2578800946    1.2259594796
 H   -4.3392468426   -2.5561981367    1.0214240504