17

 C    0.1566436977    1.5107857954   -0.1827842038
 O   -0.3311443029    0.2190941307   -0.4840932999
 C    0.5843327973   -0.5755544759   -1.1798351095
 C    1.7257441652   -1.2800107110   -0.3649423551
 C    1.2799281619   -2.6228033063   -0.9869121356
 O    1.7519268011   -3.7192272834   -1.0500859620
 C    0.0301262515   -1.9591312810   -1.5413561114
 C   -1.3625391001   -2.4207267353   -1.4134402310
 O   -0.7173460357   -2.3122000083   -2.6809771086
 H    1.0349871123    1.4724105128    0.4780214862
 H    0.4318118788    2.0604753702   -1.0954563501
 H   -0.6463152275    2.0472481633    0.3272409989
 H    0.9794711086   -0.0499493307   -2.0616334159
 H    2.7562698928   -0.9854109822   -0.5715008881
 H    1.5428183570   -1.2487116293    0.7137006594
 H   -1.5553682800   -3.4356801671   -1.0715011834
 H   -2.1270136078   -1.6755425518   -1.2069591303