18

 C    0.1640928044    1.4743263753    0.1560940196
 C   -0.1814130194   -0.0013428466   -0.0799177831
 C    0.5724100606   -0.5723408502   -1.2622078780
 C    1.9146865702   -1.2146723782   -1.1700151181
 O    2.0918975009   -1.9175962881    0.0532516346
 C    1.0254881553   -2.8410983660   -0.2826689519
 C    0.7006436208   -2.0698217577   -1.5665914383
 C    0.3287754358   -2.6514417934   -2.8086686739
 N    0.0180798304   -3.1289520928   -3.8170962500
 H    1.2317522925    1.5991965343    0.3626086356
 H   -0.0822715614    2.0865495069   -0.7180936358
 H   -0.3921821726    1.8724819000    1.0095133911
 H    0.0581492310   -0.5765643042    0.8189698547
 H   -1.2583217941   -0.1106613498   -0.2537038778
 H    0.4579557546   -0.0128981116   -2.1895385037
 H    2.8000033862   -0.9389463077   -1.7315691134
 H    1.4312322156   -3.8367101407   -0.4836693112
 H    0.2502954693   -2.8939789094    0.4881045398