20

 C    0.0630367636    1.5522632232    0.0642482353
 C    0.0149102498    0.0207914333   -0.0012187243
 C    0.6350046959   -0.5146421482   -1.2685200479
 C   -0.1021162865   -0.3767285804   -2.6151294744
 O    0.1608414177   -1.7693438564   -2.9382099146
 C    0.7837404700   -1.9916925778   -1.6513239405
 C    2.3072831392   -1.8030463519   -1.6055769351
 C    2.7437346078   -0.7493921452   -2.5339304887
 N    2.1554872422   -0.3220816946   -1.2498434813
 H    1.0957623965    1.9021358338   -0.0172503513
 H   -0.5145558151    2.0061602793   -0.7489094776
 H   -0.3504730461    1.9181345856    1.0083947780
 H    0.5551215221   -0.4006127037    0.8546493319
 H   -1.0210577241   -0.3339743986    0.0672465793
 H   -1.1788538269   -0.1920792752   -2.5084875196
 H    0.3077779578    0.3154872577   -3.3591815225
 H    0.3578993669   -2.8351226383   -1.1034577932
 H    2.9955557160   -2.4439771371   -1.0631848904
 H    3.8074561645   -0.5361549187   -2.5793868037
 H    2.2144298287   -0.6114574069   -3.4702694093