18

 C    0.1657594829    1.7265512497   -0.0668185401
 C    0.0261714810    0.2052404291    0.0680537235
 C    0.6017602233   -0.5342178061   -1.1683908859
 C   -0.0986927630   -0.2052268562   -2.4073814219
 N   -0.6709559221    0.0660331483   -3.3742386875
 C    0.7117429125   -0.3061276926    1.3197653908
 C   -0.0145062802   -0.3747178463    2.6095145030
 N    0.3590613583   -1.6130789414    1.8978607087
 H    1.2208892715    2.0194001193   -0.1141079961
 H   -0.3252492224    2.0895853797   -0.9739481242
 H   -0.2833689118    2.2319559040    0.7924570628
 H   -1.0407246889   -0.0469895107    0.1380657229
 H    1.6628993319   -0.2839816075   -1.2891939617
 H    0.5509546611   -1.6179603237   -1.0163302702
 H    1.7829026093   -0.1057053361    1.3526173210
 H    0.5108104021   -0.2068019882    3.5449766166
 H   -1.0604662616   -0.0777160237    2.6184028444
 H   -0.4615525740   -1.9888655077    1.4258894639