19

 O    0.2353016815    1.2634346005   -0.2050194392
 C    0.0087870637   -0.1080106415   -0.3285190042
 C   -1.4121643596   -0.4768821114    0.0820985861
 O   -2.1818521700    0.4090402625    0.3920938181
 C   -1.7935928619   -1.9417448279    0.0876475515
 C   -3.2954216681   -2.1858198913    0.2649088728
 C   -3.6170729264   -3.6586928772    0.3116152839
 C   -4.7963554858   -4.2289082736   -0.3490476843
 O   -3.4957792102   -4.3714494090   -0.9246643833
 H   -0.6205289908    1.6341760618    0.0649092151
 H    0.1569197527   -0.4521649819   -1.3669310648
 H    0.7158441302   -0.6863263700    0.2883276299
 H   -1.4346295516   -2.4110033851   -0.8366976529
 H   -1.2228640358   -2.4217418287    0.8965328441
 H   -3.6413200876   -1.7010891581    1.1840679685
 H   -3.8407129984   -1.7192462091   -0.5615499763
 H   -3.2083061412   -4.2008726483    1.1675391359
 H   -5.2430311991   -5.1463851183    0.0314228779
 H   -5.4765129217   -3.5712265032   -0.8888590188