21

 C   -0.1258213072    1.5367761426    0.0457283581
 C    1.4065492108    1.2743899786    0.1326758828
 C    1.0644800132    0.1312162402    1.1330304392
 C    0.0465675892   -0.0085423653   -0.0369647562
 C    1.2364889724    0.2343201640   -1.0256651044
 C    0.9269812650    0.7522481902   -2.4612730643
 C    1.8135252926   -0.0690535787   -3.3576436945
 C    2.5536708400   -0.9430556472   -2.6815480268
 C    2.3098239800   -0.8806832994   -1.1980972252
 H   -0.5992071124    1.9184316377    0.9544678166
 H   -0.5022821890    2.0527798407   -0.8386046953
 H    2.2011956604    2.0191955373    0.2255668539
 H    1.7990099937   -0.6646841069    1.2635499898
 H    0.6492926871    0.4441456451    2.0949331640
 H   -0.7424884602   -0.7577180324   -0.1416223827
 H   -0.1324326397    0.6280495813   -2.7236224436
 H    1.1369178269    1.8254300185   -2.5652975534
 H    1.8252346923    0.0609207884   -4.4346312297
 H    3.2625756967   -1.6363638253   -3.1216730462
 H    3.2335510594   -0.6503926585   -0.6500953205
 H    1.9642237789   -1.8477985207   -0.8084023616