19

 C    0.0398159857    1.4799443494   -0.0422961652
 C    0.0192879686    0.0251691152   -0.0342150119
 C   -0.0099218012   -1.1784032477   -0.0210289808
 C   -0.0123668719   -2.6367248869   -0.0076966883
 C    1.0023291793   -3.2140601824   -0.9868400282
 O    0.1985980232   -3.1668925089    1.3407955679
 C   -1.1988032749   -3.4865204152    1.4923350009
 C   -1.4401900288   -3.2736976706   -0.0148483621
 O   -2.4760484354   -2.4298939955   -0.4319943784
 H    1.0224360710    1.8657881752   -0.3353480007
 H   -0.6986952373    1.8801284137   -0.7457522730
 H   -0.1943288072    1.8838227394    0.9488342367
 H    2.0064317592   -2.8573276287   -0.7425736124
 H    0.9955900671   -4.3063669182   -0.9337108367
 H    0.7631043800   -2.8996832583   -2.0072740270
 H   -1.3484156811   -4.4902630141    1.9048773952
 H   -1.7310418942   -2.7464677998    2.1045886217
 H   -1.4318005989   -4.2168457654   -0.5754645575
 H   -3.2605682634   -2.9627628211   -0.5908324102