15

 C   -0.0278318007    1.4577390005   -0.0035144916
 N   -0.0025935179    0.0050549508    0.0255765429
 C   -0.0183437557   -0.7540090941   -1.1336578981
 O   -0.0532183364   -0.3855371772   -2.2881189863
 N    0.0144084925   -2.0791620581   -0.6647537085
 C    0.0486661067   -2.1161512066    0.7006472750
 C    0.0385496996   -0.8263881696    1.1494341250
 C    0.0654636307   -0.4028367514    2.5313245966
 O    0.0563292500    0.7474126229    2.9228674600
 H    0.8617979450    1.8719324335    0.4750265841
 H   -0.0567576726    1.7467230054   -1.0551467090
 H   -0.9082423408    1.8421442744    0.5153257124
 H    0.0112219870   -2.8621198066   -1.2957387500
 H    0.0774948380   -3.0340281579    1.2640870161
 H    0.0968189145   -1.2587770460    3.2407294513