19

 C    0.4836200762    1.3654311117   -0.0111620991
 O    0.5228826223   -0.0410166608    0.0479461198
 C    0.0966117265   -0.6339741375   -1.1645225889
 C    0.1481549182   -2.0855469578   -1.0617283786
 C    0.1735869234   -3.2869774867   -1.0028843880
 C    0.2395589507   -4.7423759018   -0.9267666226
 C    1.4538621638   -5.3203946448   -1.6339493451
 C    1.4312817128   -6.6679213918   -2.2125318382
 O    1.3452364744   -5.5068222075   -3.0422384292
 H    1.1425137749    1.7619109927   -0.8004825095
 H   -0.5358739223    1.7401341038   -0.1973092499
 H    0.8263294562    1.7394437950    0.9561175860
 H   -0.9318936670   -0.3127303843   -1.4069857192
 H    0.7336194526   -0.2962437020   -2.0010372326
 H    0.2652713850   -5.0509361457    0.1274170268
 H   -0.6627290024   -5.1869699560   -1.3639570314
 H    2.4105846450   -4.9105854768   -1.3091439024
 H    2.3544930263   -7.2392631728   -2.2958424731
 H    0.5215183234   -7.2643566768   -2.1491576548