13

 O    0.0068381495   -0.0121927595    0.0038038007
 C   -0.0118203772    1.1895536655    0.0104007748
 C   -1.2525396069    2.0935064695    0.0314359287
 C   -0.7195868542    3.5379788511    0.0319069270
 C    0.7764538888    3.3887120528    0.0115628852
 C    1.1786340887    2.1061062201   -0.0003963631
 C    2.5185164129    1.6346080490   -0.0204071216
 N    3.6052492474    1.2371361393   -0.0367146511
 H   -1.8728622024    1.8656738481   -0.8396556042
 H   -1.8496615593    1.8565853099    0.9162120664
 H   -1.0573172651    4.1176416526   -0.8355801878
 H   -1.0344550780    4.1086596750    0.9138256496
 H    1.4448193156    4.2423238866    0.0072700053