14

 N   -0.1412181211    1.2801076652    0.3248193438
 C    0.0601280720    0.0150715023   -0.1249388626
 O    1.0974528273   -0.4003290965   -0.6011626785
 C   -1.1877152512   -0.8648175874   -0.0292105906
 C   -0.9820840088   -2.3472132647    0.3227388064
 O   -1.7893043488   -2.1622907948    1.5413436122
 C   -1.9600381129   -0.8301555779    1.2723367004
 N   -2.5135999540    0.0929016604    1.9199731074
 H    0.6513666060    1.9015336281    0.3517686093
 H   -0.9512938836    1.4868532007    0.8946632070
 H   -1.8130529404   -0.6862945739   -0.9076643519
 H   -1.4446943256   -3.0812850570   -0.3380964270
 H    0.0438203975   -2.6257334208    0.5657150772
 H   -2.9088621165   -0.2324844036    2.8025789771