15

 C    0.0780068280    1.5252174887   -0.1543285971
 N    0.0414934513    0.0675421231   -0.0367667477
 C   -1.1154274374   -0.4941333778    0.7172420108
 C   -0.2866354705   -1.7191799272    1.1973468762
 O   -0.6535439062   -1.5845037056    2.5916795157
 C   -0.5416749693   -0.2089778640    2.1573650976
 C    0.6886069437   -0.4906957828    1.1866894187
 C    2.0980579673   -0.4267302177    1.4597786417
 N    3.2290003150   -0.3601105201    1.6914803153
 H    1.0825305707    1.8331626877   -0.4577272788
 H   -0.6207192352    1.8316839765   -0.9380645099
 H   -0.1838506235    2.0598062092    0.7735541565
 H   -2.1455284363   -0.4588238837    0.3668443412
 H   -0.1500164465   -2.7052832279    0.7596838237
 H   -0.7117487010    0.5801512216    2.8877902460