19

 C    0.0486214110   -1.1513434030   -0.0399448014
 C    0.0129451635    0.0516333559   -0.0076238056
 C   -0.0483015643    1.4740084778    0.0464636066
 C   -1.0828731542    2.2285431834    0.8904715558
 C   -0.6270005382    3.6577485106    0.5238241690
 C    0.8867526538    3.5968032114    0.8412283858
 C    1.2021057619    2.3615407661    0.0053605650
 C    0.2488643175    2.3650300723   -1.1662490843
 C   -0.6300617627    3.6023579858   -1.0230527349
 H    0.0826919573   -2.2115937093   -0.0704872654
 H   -2.1094509292    2.0127198086    0.5789230809
 H   -0.9872557258    2.0086005019    1.9581722266
 H   -1.1856695081    4.4736704951    0.9807988813
 H    1.4258756587    4.4861652163    0.4976430640
 H    1.0905731553    3.4560692079    1.9075620969
 H    2.1859964746    1.9171895806   -0.0566197990
 H    0.5083626341    1.9233427083   -2.1185654321
 H   -1.6330554265    3.4660458955   -1.4399915494
 H   -0.1814054886    4.4920468047   -1.4778396898