19

 C   -0.4661676126    1.2576737678    0.1816237610
 N   -0.1050352279   -0.1400904584    0.0874610122
 N   -0.1583092885   -0.7634607211   -1.1095214126
 C    0.2536751512   -2.0033895631   -0.8609976259
 C    0.5813319248   -2.1834012216    0.4958484110
 C    0.3389458226   -0.9552042283    1.0874005972
 C    0.4863050330   -0.4819583320    2.4792635623
 C   -0.6901837590   -0.5277927723    3.4433014944
 C    0.4737287791   -1.4636303737    3.6222887852
 H    0.4181510262    1.8937184179    0.3032491700
 H   -0.9721374744    1.5263573466   -0.7449832215
 H   -1.1366032373    1.4223911830    1.0293167995
 H    0.2992758305   -2.7217121889   -1.6665918617
 H    0.9513099974   -3.0716160528    0.9817512907
 H    1.1457345425    0.3740148994    2.6039438476
 H   -0.8075779550    0.2945320229    4.1403059772
 H   -1.6196629264   -0.9460770521    3.0740324690
 H    0.3171950518   -2.5094134600    3.3850399583
 H    1.1571567219   -1.2889550031    4.4451651060