20

 C    0.0703045330    1.5091038332   -0.1978884669
 C    0.0005022451    0.0227308282    0.1703169342
 C   -1.4183413295   -0.5268956884    0.0983444258
 C   -2.0418375887   -0.8598187471   -1.2974935458
 N   -1.1135750157   -2.0657324842   -1.3268719886
 C   -1.4523357644   -3.1894884952   -2.2030574689
 C   -1.6379736043   -2.0725484367    0.1031145134
 C   -3.0209894129   -1.7952712570   -0.5416943802
 O   -4.1251940056   -2.2373911396   -0.6066472549
 H    1.0924644433    1.8882271924   -0.1048519373
 H   -0.2536162806    1.6782484213   -1.2303819752
 H   -0.5695107474    2.1151962979    0.4534346676
 H    0.6491276879   -0.5618273063   -0.4857641321
 H    0.3707631488   -0.1161729058    1.1941767972
 H   -2.0961100547    0.0186767281    0.7623268734
 H   -2.1830570709   -0.2184931373   -2.1662544365
 H   -1.2014176939   -2.9110456039   -3.2310328835
 H   -0.8271895111   -4.0430306541   -1.9240944447
 H   -2.5066459588   -3.5033805470   -2.1731219247
 H   -1.3142130594   -2.8126510786    0.8338137576