17

 O   -0.1114515092    0.0109254337   -0.0669119267
 C    0.0167460481    1.1990838608    0.0346255930
 C    1.3605637584    1.9574452159   -0.0116634184
 C    2.5412830374    0.9683639283   -0.2426982299
 C    2.7951562824    1.0694379547   -1.7250321648
 C    2.1427475816    2.0817121045   -2.2901565352
 C    1.3254066098    2.8663196312   -1.2962781418
 C    1.4421390881    2.7291024309    1.2208660264
 C    1.4643867145    3.3549427882    2.2478321906
 H   -0.8568335718    1.8743059778    0.1658741574
 H    3.4214926864    1.2634473039    0.3395808764
 H    2.2555557325   -0.0387674908    0.0740825420
 H    3.4610377469    0.3874928234   -2.2414578406
 H    2.1917651250    2.3581252251   -3.3371550507
 H    0.2959895084    3.0557633324   -1.6278979360
 H    1.7651806433    3.8481213690   -1.0849781840
 H    1.5045978784    3.9093520510    3.1528162123