14

 O    0.1518825068    1.3874222736   -0.1081115531
 C    0.1175268789   -0.0071828633   -0.0997552680
 C    0.1589613987   -0.6408017010    1.3235375889
 O   -1.2612619427   -0.2404350867    1.4539354497
 C   -1.3136146611   -0.6123297267    0.0210065569
 C   -1.0799580074   -2.1339645450    0.1018477222
 O    0.2371368043   -2.5552801993   -0.2906742462
 C    0.0172605880   -2.1551798671    1.0723686832
 H   -0.4564763374    1.6760643240    0.5859752726
 H    0.7911066746   -0.3738024904   -0.8692851637
 H    0.7950559794   -0.2768277064    2.1291555201
 H   -2.1826555026   -0.2192551035   -0.5047063910
 H   -1.8732306082   -2.8680163885    0.0208755356
 H    0.1783489089   -2.9076816198    1.8355606729