17

 N   -0.1285910095   -1.1530613697   -0.0027036099
 C   -0.0023922950   -0.0055423492   -0.0147513868
 C    0.0991220870    1.4604349865   -0.0515670001
 C    1.5032512278    1.8903915588   -0.1181034324
 N    2.5908735169    2.2710262113   -0.1892794015
 C   -0.7189470850    2.0465500903   -1.2263974616
 C   -2.2613022075    1.8837700719   -1.1925229546
 C   -2.3728226813    3.3328080417   -1.7430857844
 C   -0.9094497992    3.5850052280   -1.2846643830
 H   -0.3192031666    1.8438299604    0.8889515596
 H   -0.3034869574    1.6656722975   -2.1628866665
 H   -2.6930221152    1.0700977836   -1.7771751459
 H   -2.6354859247    1.8118027137   -0.1660791088
 H   -2.4652082520    3.3472629519   -2.8319121792
 H   -3.1485053928    3.9721654227   -1.3187247400
 H   -0.8704712212    4.0329129906   -0.2863469237
 H   -0.2471692143    4.1481790797   -1.9438235312