15

 O    0.0561154603   -0.0238672837   -0.0088659611
 C   -0.0007980404    1.1766705492   -0.0573415244
 C   -1.2687165177    2.0335186509   -0.1612890863
 C   -0.8235254627    3.3228720863   -0.9113230313
 C   -1.5665499278    4.5238575737   -0.5573373065
 C   -2.1764081814    5.5157671372   -0.2611265581
 C    0.6773162449    3.4164856329   -0.6041111129
 O    0.9765916609    3.2456355728    0.7698413304
 C    1.1756884245    2.1193020856   -0.1113051377
 H   -2.0641137827    1.4889249024   -0.6704693762
 H   -1.6135219241    2.2789603640    0.8470213697
 H   -0.9196818487    3.1515105331   -1.9920351976
 H   -2.7145501499    6.3922782852    0.0037012426
 H    1.3050192657    4.1152614202   -1.1500007709
 H    2.1917980489    1.7574866004   -0.2265551995