18

 O    0.2823260290    1.2774717380   -0.4764470452
 C    0.0951883333    0.0017118911    0.0994023754
 C   -1.3602292924   -0.4917447141    0.0417733463
 C   -2.2622076930    0.1397294713    1.1173113329
 C   -2.2505037820    1.6026863389    1.1219313101
 N   -2.2089394950    2.7584749553    1.1249211910
 C   -1.9057100451   -0.5344895973   -1.4056085477
 O   -1.7766497382   -1.9728490862   -1.4493419651
 C   -1.4751223359   -2.0342414729   -0.0457553457
 H   -0.1265929615    1.9464845281    0.0840520080
 H    0.7125245278   -0.6819708207   -0.4925375767
 H    0.4641530494   -0.0418162765    1.1375028925
 H   -3.2969515450   -0.1960105277    0.9870598920
 H   -1.9421091365   -0.2008507491    2.1103872226
 H   -2.9504991747   -0.2139696047   -1.5163114234
 H   -1.2907784766   -0.0323308411   -2.1572299035
 H   -0.5616136403   -2.6045468204    0.1630493211
 H   -2.3023336634   -2.4644618019    0.5371240155