18

 C   -0.0277710372    1.3392987216   -0.1748479040
 O   -0.0714865823   -0.0661117223   -0.1895577774
 C   -1.3338077001   -0.5766996996    0.1929061067
 C   -1.2681139839   -2.0784126744    0.1117860761
 C   -2.4696264429   -3.0070769577    0.1320514864
 C   -3.5925831138   -2.4491932558   -0.7365308454
 O   -2.6830695454   -2.2299645223   -1.8478327750
 C   -1.6235172688   -2.8557573951   -1.1168669745
 H    0.9772872294    1.6394977522   -0.4816836705
 H   -0.7582267612    1.7796277660   -0.8723569486
 H   -0.2280434849    1.7465306254    0.8297982941
 H   -1.5791235753   -0.2551124807    1.2202155787
 H   -2.1193245765   -0.1912153922   -0.4740004264
 H   -0.4204965201   -2.5033893237    0.6454192897
 H   -2.5636423404   -3.8287061700    0.8291050221
 H   -4.3401758350   -3.2049110302   -1.0027477373
 H   -4.0977534816   -1.5301717729   -0.4172776614
 H   -0.9672335601   -3.5288119483   -1.6561594033