18

 C    0.0438983527    1.5717198804   -0.0893607510
 C   -0.0366154218    0.0436894654    0.0224507790
 C    0.6663152463   -0.5053333552    1.2378726128
 N    2.1579821857   -0.2684408997    1.4236284930
 C    2.0935663888   -1.3818949630    2.4410343739
 C    1.1162085648   -0.7954394976    3.4310274381
 C    0.1873964057   -0.2225410988    2.6479056580
 C    1.0587111422   -2.0408509142    1.4299268641
 O    0.8733541037   -3.0756678100    0.8800370636
 H    1.0840051866    1.9074172494   -0.1271202866
 H   -0.4631773726    1.9214766535   -0.9933092217
 H   -0.4263563479    2.0574718976    0.7713479046
 H   -1.0843737128   -0.2781830791    0.0612082826
 H    0.3875295342   -0.4225369485   -0.8753438328
 H    2.6471188915   -0.6129362045    0.5909250097
 H    3.0199615900   -1.8466340587    2.7691403233
 H    1.1434400408   -0.9182984685    4.5033253072
 H   -0.7483079878    0.2486266315    2.9118827419