19

 C   -0.1640657510   -1.2343969944   -0.1987475240
 C   -0.0770752780   -0.0423267571   -0.0708037834
 C    0.0169347329    1.4090163907    0.0439419136
 O   -0.5683366749    1.8769071029    1.2827921941
 C    0.4330717602    2.6926822621    1.9191599511
 C    1.5156898113    1.7624799000    2.4972148503
 C    2.2487151946    1.2798885418    1.2022643272
 C    1.4558657422    1.9895024791    0.0806297048
 C    1.1433743146    3.3535104105    0.7305088236
 H   -0.2474709698   -2.2879363107   -0.3038511513
 H   -0.5430559397    1.8565330961   -0.7905144863
 H   -0.0730458439    3.3392271022    2.6366505291
 H    2.1860256820    2.2999562735    3.1752944965
 H    1.0545175605    0.9431196994    3.0523632497
 H    3.2933567999    1.6034276547    1.1875485193
 H    2.2345829901    0.1944112973    1.0883527972
 H    1.9377973763    1.9969649329   -0.8971649189
 H    0.4805378393    3.9900328431    0.1388642181
 H    2.0413784834    3.9112135658    1.0090506393