17

 O    0.1175318360    1.2401019811   -0.5569779688
 C   -0.0136891241   -0.0565038368    0.0046711758
 C    0.4688828739   -0.1205977462    1.4804179341
 O   -0.4011531806   -0.9962416592    2.1856356965
 C   -1.6287877930   -1.0589719349    1.4878264715
 C   -2.3029218476    0.2538582644    1.1408784655
 C   -1.4666357392   -0.4632235586    0.1045569444
 C   -2.3941961671   -2.2362864884    1.7657628063
 C   -3.0519124626   -3.2152418316    1.9978715694
 H    1.0520086571    1.4054076392   -0.7180855610
 H    0.5200780129   -0.7953690057   -0.6096346001
 H    1.4881508072   -0.5024430035    1.5922185660
 H    0.4317500675    0.8975337602    1.8928999341
 H   -3.3777744341    0.2296087033    1.0083233863
 H   -1.9170144627    1.1615108581    1.5905171689
 H   -1.9491930700   -0.9086007712   -0.7557460149
 H   -3.6280465135   -4.0831168404    2.2034421561