25

 C    0.5342554139    1.1840208722   -0.3286243909
 C    0.1781025947   -0.2872444668   -0.1005363808
 C   -1.3251276399   -0.5150344393    0.0837242332
 O   -2.0008203284   -0.2167233786   -1.1392269021
 C   -2.9452987150    0.8287765370   -1.0735483887
 C   -1.6914155905   -1.9585890117    0.5207721007
 C   -3.2043163410   -2.0739478692    0.7507766418
 C   -1.2268516501   -3.0026941708   -0.5025868624
 O   -1.0040242819   -2.1313440248    1.7671842678
 H    1.6126374662    1.3102127056   -0.4658790246
 H    0.0370716299    1.5725654068   -1.2225032544
 H    0.2346107529    1.8047815483    0.5237086674
 H    0.5184876840   -0.8781389699   -0.9581742896
 H    0.6921323342   -0.6737238324    0.7840802386
 H   -1.6850062025    0.1523177792    0.8806893784
 H   -3.7740952335    0.6004811670   -0.3876014722
 H   -2.4885030831    1.7779770354   -0.7586050694
 H   -3.3529293113    0.9558710191   -2.0805316360
 H   -3.7589381531   -1.9001335165   -0.1746775106
 H   -3.4577653397   -3.0786632408    1.1093668869
 H   -3.5340378113   -1.3538224902    1.5057144258
 H   -0.1364797488   -3.0356848722   -0.5596770778
 H   -1.5815373128   -4.0002296168   -0.2178248471
 H   -1.6244057836   -2.7706574300   -1.4940937783
 H   -1.1900028492   -3.0216063405    2.0829498445