14

 C   -0.0660453086    1.4688303354    0.0106208295
 C    1.4041222999    1.8531076161   -0.0012468984
 C    2.1783346954    0.7544364797   -0.0147777199
 C    1.3163661356   -0.4163607739   -0.0130596391
 N    1.4091497911   -1.7290503728   -0.0211934566
 C    0.0983747548   -2.1551715990   -0.0109567025
 C   -0.7828419285   -1.0942411087    0.0031763371
 N    0.0173936911    0.0200300604    0.0017295557
 H   -0.5844995866    1.8391098044    0.9035438485
 H   -0.6013878670    1.8490110306   -0.8680623351
 H    1.7293381930    2.8835103690    0.0013849536
 H    3.2575874343    0.7146248327   -0.0253033710
 H   -0.1478295567   -3.2065673836   -0.0143587777
 H   -1.8588659676   -1.0464296004    0.0136434659