12

 O    0.1230778659    1.2159675822   -0.6560496323
 C   -0.0003982934    0.0226382316    0.0917510823
 C   -1.4097210911   -0.4955507608    0.0707959186
 N   -2.1075101388   -0.7196925199    1.1484652683
 O   -3.3382495729   -1.1503321248    0.7233042057
 N   -3.4182535349   -1.1888702709   -0.6265697827
 C   -2.2444950276   -0.7891094583   -1.0569473673
 C   -1.9310267750   -0.6953136893   -2.4393968444
 N   -1.6465618883   -0.6202445621   -3.5570986527
 H   -0.3465206664    1.9166889291   -0.1904605279
 H    0.6628023458   -0.7034378342   -0.3887844712
 H    0.3180885767    0.1315988574    1.1356883937