23

 C   -0.0598815401    1.5685415679   -0.0063559298
 C    0.0186045659    0.0364555886   -0.0116827002
 C    0.4864881788   -0.4938622011   -1.3828025438
 C    0.9654285442   -1.9539652199   -1.3463544371
 C    1.9762801680   -2.1805122450   -0.2182303915
 C    3.0479213080   -1.0537538797   -0.0054793243
 C    2.3409086483   -0.6479803753    1.2899724170
 C    1.4195952992   -1.8692887290    1.1893745255
 C    0.8374427238   -0.4904957167    1.1624007040
 H    0.9352625379    2.0100414007   -0.1319861219
 H   -0.6951645689    1.9360662477   -0.8199490056
 H   -0.4733854702    1.9446497422    0.9358204836
 H   -0.9999074101   -0.3483918374    0.1521994375
 H   -0.3296055879   -0.3820668355   -2.1060006160
 H    1.3002408200    0.1395582530   -1.7550185407
 H    0.1120713199   -2.6298242110   -1.1975596107
 H    1.4067610613   -2.2163966603   -2.3156950233
 H    2.4273169141   -3.1723829317   -0.2921114397
 H    4.0273698655   -1.4903975242    0.2076982762
 H    3.1757834701   -0.2983626028   -0.7860571751
 H    2.8492152650   -0.2671472079    2.1689432005
 H    1.1683843594   -2.6076188059    1.9419161184
 H    0.4083100476   -0.2001001266    2.1210854569