21

 C   -0.0670908631    1.5379037749    0.0248500680
 N    1.2249705725    0.8312493951    0.0465433923
 C   -0.0272048940    0.0534576891    0.0239142481
 C   -0.3223883017   -0.7464189191    1.2485931551
 N   -1.5598714595   -1.5575307073    1.2092957893
 C   -0.2665861450   -2.2281004346    1.2740246028
 C    0.2951433830   -3.1853085817    0.2154996577
 C    1.1740696527   -3.8161801525    1.3365587305
 C    0.3052707691   -3.0892746588    2.4069833924
 H   -0.3079711488    2.0715338485    0.9407737967
 H   -0.3783224459    2.0429932428   -0.8857986955
 H    1.6465149061    0.8450304744   -0.8779649897
 H   -0.3094390784   -0.4377218471   -0.9047115499
 H   -0.0703561072   -0.2389976084    2.1792928203
 H   -2.0127314770   -1.5645483925    2.1204327572
 H   -0.4715587104   -3.8704510129   -0.1583206550
 H    0.8165590598   -2.7429842738   -0.6369963672
 H    1.2004729977   -4.9062060968    1.3857149163
 H    2.1997589099   -3.4411985469    1.3173396120
 H    0.8268902484   -2.5737328646    3.2178942976
 H   -0.4522552981   -3.7514000078    2.8409375012