21

 C    0.0639185048   -1.1971938905   -0.4672714491
 C    0.0345032713   -0.0515808425   -0.1046001782
 C    0.0237372959    1.3390036701    0.3413398286
 C    1.3844551431    2.0095290606    0.2019939357
 C    1.7911319434    2.6743803966   -1.0890223083
 C    1.5331644067    3.5147751921    0.1414080205
 C    0.3700879798    4.4550539917    0.2126746440
 C    0.0847698528    5.2178700909    1.4851242369
 C    0.6105442153    5.9443939015    0.2720833215
 H    0.0812263962   -2.2080758946   -0.7907955584
 H   -0.7299514078    1.8930352199   -0.2301102104
 H   -0.3036989229    1.3800905510    1.3888601470
 H    2.1717178226    1.4817934312    0.7327820464
 H    2.8081585100    2.5543441738   -1.4455315858
 H    1.0483196113    2.7164197825   -1.8803853301
 H    2.4195417914    3.8994995087    0.6419119022
 H   -0.5018402247    4.1509032556   -0.3593190873
 H   -0.9483991939    5.3753390157    1.7747709798
 H    0.7616525646    5.0723323315    2.3207481853
 H    1.6401211460    6.2869164249    0.2923620598
 H   -0.0626518460    6.5985092793   -0.2709434500