22

 C    0.1076631361    1.6602754444   -0.0694180099
 C   -0.1555947885    0.1548652746   -0.1900187973
 C    0.7083917586   -0.4906541258   -1.2731172054
 C    2.1761469718   -0.7054439045   -0.9672885854
 N    3.1139682339    0.0400920511   -0.5871678163
 O    2.1607627923   -2.0548092235   -1.2242711594
 C    0.7030836618   -2.0360978889   -1.5087166133
 C   -0.0253552562   -2.9005751542   -0.4936611682
 C    0.4506824641   -2.4750516811   -2.9410201911
 H    1.1628802390    1.8491293478    0.1451979969
 H   -0.1440101182    2.1801876105   -1.0005656288
 H   -0.4952453916    2.0982970792    0.7316695398
 H    0.0366527719   -0.3258640972    0.7752891565
 H   -1.2129678346   -0.0238558101   -0.4239595029
 H    0.5750620511    0.0511173037   -2.2160028885
 H    3.9792968645   -0.4898521891   -0.4656640700
 H    0.2301828408   -2.6186198937    0.5299548606
 H   -1.1092842167   -2.8109466233   -0.6182306012
 H    0.2467339349   -3.9512369969   -0.6341478082
 H    0.7270366438   -3.5251234601   -3.0780431971
 H   -0.6102626252   -2.3662790294   -3.1901864255
 H    1.0338787264   -1.8716524637   -3.6420365152