15

 O    0.0485418717    0.0214874706    0.0003135089
 C    0.0379876540    1.2181135596   -0.0295487087
 N   -0.9916800357    2.1509479354    0.0053472242
 C   -0.1416405854    3.3309394900   -0.0138695846
 C    0.4104047782    3.8171078245    1.3758785139
 N    1.4569588577    2.7434420250    1.3287304203
 C    1.0829225076    2.3721178343   -0.0628072754
 C    0.9278134607    5.1722513614    1.3480365109
 C    1.3766097764    6.2872067482    1.2976862533
 H   -1.9600120483    2.0412303418    0.2727710605
 H   -0.3882406352    4.0929291061   -0.7512094927
 H   -0.2850985292    3.6870083206    2.2128017631
 H    2.3952578380    3.1168791298    1.4080926074
 H    1.8603948273    2.3729993321   -0.8250621982
 H    1.7665240021    7.2749341507    1.2693446771