16

 C    0.0903915326    1.5634033093    0.0076173904
 C   -0.0403640143    0.0429167424    0.0032592375
 C   -1.4568662200   -0.4609647787    0.0134509478
 N   -2.4648262811    0.3494559248    0.0247226948
 C   -3.7374879808   -0.1827328410    0.0335696527
 C   -3.9477944718   -1.5099182585    0.0307385327
 O   -2.9230920627   -2.3883063712    0.0191104787
 C   -1.6114206666   -1.9358218880    0.0096964632
 O   -0.7194902003   -2.7394117150   -0.0006984662
 H    1.1456356808    1.8498050009   -0.0002903915
 H   -0.3947381695    2.0051538978   -0.8667169561
 H   -0.3798290405    1.9988226953    0.8932016324
 H    0.4644206197   -0.3963286285   -0.8678295907
 H    0.4790949634   -0.4025698146    0.8624656933
 H   -4.5660339194    0.5139550201    0.0429295294
 H   -4.9141921894   -1.9983640950    0.0371533815