20

 C   -0.2560753613    1.5606239963   -0.0008106236
 C    0.0098814196    0.0729667785    0.0026333569
 C    1.0718327769   -0.4987087513   -0.9814097114
 C    1.7507493393   -1.2854551341    0.1821413945
 C    0.6836743856   -0.7420390560    1.1662503489
 C    1.0935243477   -0.2253320414    2.5202343780
 O   -0.4598979433   -1.6321990303    1.2361586526
 C   -1.1722142314   -0.8889097734    0.2232583238
 H    0.6760627134    2.1342195376    0.0489330106
 H   -0.7759009189    1.8621907554   -0.9188114830
 H   -0.8820308851    1.8609936901    0.8466956748
 H    0.6718898287   -1.1008214001   -1.8020372361
 H    1.7134461343    0.2758876895   -1.4098700975
 H    1.7452456644   -2.3742896202    0.1000572837
 H    2.7689322035   -0.9510009538    0.4003291202
 H    1.9121717980    0.4965801959    2.4347676502
 H    0.2527338318    0.2558133630    3.0290790013
 H    1.4377230612   -1.0547666578    3.1489949891
 H   -2.0736409126   -0.4152108015    0.6367271942
 H   -1.4630228419   -1.5155990765   -0.6303346973