23

 C    0.1388641690    1.6273134881   -0.1664315353
 C    0.0832484003    0.0962726658   -0.1521310428
 C   -1.3188831728   -0.4948406805    0.0886507010
 C   -2.3126057744   -0.1488226644   -1.0310597346
 C   -1.2409549899   -2.0030757490    0.2537595068
 C   -0.7030558888   -2.7366141530    1.4733019541
 C   -1.2047499658   -2.0756676535    2.7533967443
 O   -2.5766549443   -2.0868639991    2.2755430905
 C   -2.1726451305   -2.8081392213    1.1053278073
 H    1.1698979343    1.9802205417   -0.2697060176
 H   -0.4359056398    2.0509671577   -0.9956133886
 H   -0.2634698412    2.0456757205    0.7633297703
 H    0.4782045106   -0.2934107415   -1.1011188577
 H    0.7545829539   -0.2794714938    0.6300710914
 H   -1.7135965857   -0.0767585483    1.0225561637
 H   -1.9613973357   -0.5283251059   -1.9987731931
 H   -3.2910053010   -0.5964803357   -0.8315469739
 H   -2.4552798099    0.9309681727   -1.1290539063
 H   -0.9728655814   -2.5345730932   -0.6602786949
 H    0.0730002031   -3.4882406748    1.4189753000
 H   -1.1060941058   -2.7174573869    3.6362003352
 H   -0.8518194506   -1.0656128598    2.9930540298
 H   -2.8127139437   -3.6177763758    0.7721641204