14

 C   -0.0189062757    1.5673073512    0.0149384326
 C   -0.0097903598    0.0385804311    0.0083454326
 O    0.5973148558   -0.4670509262   -1.2047899067
 C   -0.2225870138   -0.6393668758   -2.2532247658
 N   -1.4586266845   -0.3661462384   -2.2398076236
 C    0.5022346858   -1.1753520312   -3.3906464034
 N    1.0150436306   -1.5969842455   -4.3362773643
 C    0.7761792731   -0.5145658275    1.1171532022
 N    1.3679697738   -0.9225667534    2.0204210664
 H    0.9952537764    1.9540201708   -0.1055019897
 H   -0.6509654093    1.9266531949   -0.7987625700
 H   -0.4244858741    1.9285133802    0.9633518206
 H   -1.0323019233   -0.3456339929    0.0676806077
 H   -1.9082390750   -0.5813283872   -3.1259489387