22

 C    0.0136535090    1.5631001331    0.0441299916
 C    0.0152775833    0.0361141452   -0.0054881263
 C    0.6324052480   -0.4999124912   -1.3107630033
 C    0.7095313213   -2.0387286156   -1.3003260479
 C    1.3371480820   -2.5539167860   -0.0126898691
 O    2.2619759823   -3.3346247687   -0.0008892194
 C    0.7220671576   -1.9635513516    1.2647469135
 C    1.4400408128   -2.4234460434    2.5266307619
 N    0.6843119688   -0.4904899137    1.1906530405
 H    1.0370094489    1.9551975491   -0.0026106034
 H   -0.5399178767    1.9820657473   -0.8014389393
 H   -0.4421584896    1.9162030294    0.9724510500
 H   -1.0267189735   -0.3148231882    0.0483910211
 H    0.0596006130   -0.1567361816   -2.1808938103
 H    1.6447227433   -0.0859158814   -1.4169944245
 H   -0.3090026282   -2.4490914666   -1.3585146600
 H    1.2755191360   -2.4303188725   -2.1490619393
 H   -0.3273022412   -2.2962718882    1.2986120432
 H    2.4902606532   -2.1148665729    2.5091571473
 H    0.9610128529   -1.9910182576    3.4081170274
 H    1.4266718029   -3.5126353743    2.6031337412
 H    1.6382700841   -0.1355472405    1.2258003649