19

 C    0.0267220865    1.5628829772   -0.2978754760
 C    0.0399492746    0.0723157805    0.0437175035
 O    0.7769230189   -0.1941327662    1.2319164873
 C   -1.3764544126   -0.5295118745    0.1388569676
 C   -1.4597426151   -2.0613817017    0.1091977699
 O   -2.6896815724   -2.3898954601    0.7630252947
 C   -2.8445922084   -1.4989328336    1.8472566382
 C   -2.0671721310   -0.2363591855    1.4735934542
 O   -1.9660329679    0.7598534910    2.1464724618
 H    1.0512827497    1.9426805633   -0.3337924503
 H   -0.4423147648    1.7395236994   -1.2715525505
 H   -0.5323051107    2.1233372507    0.4571185690
 H    0.5816751888   -0.4687486903   -0.7422771873
 H    0.4120659739    0.3749627482    1.9208155104
 H   -2.0165461040   -0.1211091126   -0.6551442960
 H   -1.5009003705   -2.4845773052   -0.8962152826
 H   -0.6007080860   -2.4919581320    0.6458873434
 H   -3.9068381997   -1.2930575326    2.0124970363
 H   -2.4233607295   -1.8999192761    2.7846033665