16

 C   -0.0294556088    1.5290087216   -0.0021734800
 C    0.0603484982    0.0088162464    0.0289127099
 N    1.1241126140   -0.5871000743   -0.8238976443
 C    1.4540639753   -1.5955693494    0.2125006218
 C    0.7775974719   -0.6858478742    1.2667972609
 O    1.6350368680    0.1463049425    1.9915964373
 C   -1.2577769069   -0.6002606378   -0.2025801537
 N   -2.2795529271   -1.1050218495   -0.4029519029
 H    0.9379373915    1.9619753907    0.2573590781
 H   -0.3085361303    1.8726841606   -1.0023899297
 H   -0.7780177587    1.8885691584    0.7091771223
 H    0.8204960654   -0.9438260196   -1.7240709919
 H    0.9387880625   -2.5579836544    0.1018533583
 H    2.5259337285   -1.7738947151    0.3472599233
 H    0.1112608030   -1.1597156219    1.9866883755
 H    2.3275185935    0.4593319762    1.3981231351