19

 C   -0.0495635883    1.6198507107   -0.0449595238
 C    0.0014635676    0.0902103866    0.0261872343
 C    0.7214669498   -0.5072091122   -1.1869068278
 C    0.7456077978   -2.0703408707   -1.2353937680
 C    1.5025074323   -2.6911617216   -0.0308565928
 C   -0.6357563042   -2.5890171829   -1.2627032372
 N   -1.7235054802   -2.9768776682   -1.2470200916
 C    1.4229329228   -2.4780582407   -2.4811598468
 N    1.9919635729   -2.7710821125   -3.4423717858
 H    0.9566628468    2.0516194813   -0.0747348464
 H   -0.5834025140    1.9573130429   -0.9394694043
 H   -0.5642907595    2.0331342271    0.8268972286
 H    0.5064495164   -0.2116822505    0.9506298791
 H   -1.0173915398   -0.3104917424    0.0797671169
 H    0.2496820740   -0.1508344798   -2.1084330273
 H    1.7646916521   -0.1731776224   -1.2159375086
 H    0.9833482200   -2.4571345595    0.8994950648
 H    1.5625964802   -3.7759842936   -0.1339157802
 H    2.5152701232   -2.2831693916    0.0085755869