16

 O    0.0323970256    0.0360476948    0.2306325452
 C   -0.0090622928    1.2208701209    0.0440149222
 C   -1.2601337472    2.0633444022   -0.2458118703
 C   -0.7118579346    3.3513576647   -0.8829762941
 N    0.7327991583    3.4752118192   -0.5469187832
 C    0.9988640060    3.3768311810    0.8718235154
 C    1.1812374766    2.1599360933   -0.0044025408
 C    2.4774455363    1.6460486355   -0.3242062227
 C    3.5589567357    1.1892538242   -0.5784249798
 H   -1.9274622314    1.5041473417   -0.9036424565
 H   -1.8036259133    2.2313108828    0.6902497120
 H   -0.7797659658    3.3028208578   -1.9730953723
 H   -1.2277450758    4.2576835247   -0.5548209930
 H    1.8989314595    3.8795051057    1.2109125533
 H    0.1722553368    3.3804641926    1.5798035853
 H    4.5141754159    0.7874572091   -0.8105691508