18

 O   -0.5738346852    0.7741683060    0.7243765321
 C    0.0797313392    1.1351137149   -0.2230004072
 C    1.3501752373    1.9170793188   -0.1153332889
 C    2.7179850027    1.2837430194   -0.5063993978
 C    3.0563015685    2.7488405273   -0.7652724580
 C    2.6566087599    3.6489848609    0.4768509699
 C    1.6631194622    4.3039097280   -0.5008298990
 N    1.6113750818    2.9831503375   -1.2171791759
 C    1.7113047553    2.6594094128    1.1891221917
 H   -0.2182550475    0.8928535232   -1.2665489049
 H    3.2466952482    0.7138974664    0.2595056514
 H    2.6658974173    0.7298804291   -1.4460954250
 H    3.8593526533    3.0855457731   -1.4220141680
 H    3.3749832011    4.2114661650    1.0741304253
 H    0.7135421346    4.6859320374   -0.1119597876
 H    2.1107169535    5.0378937065   -1.1771615470
 H    0.8619192201    3.1477153628    1.6715995812
 H    2.1952218476    2.0047048510    1.9166419779