19

 C   -0.0452737187    1.4667407253    0.1087258620
 C    1.2989193667    0.7917722441    0.0535464822
 O    2.0589670686    0.8617950363    1.2249971361
 C    2.4797044107   -0.3455675213    1.8239778437
 C    1.3042667186   -1.2471315700    2.2808816526
 C    0.6755937977   -2.1443252851    1.1956850750
 C   -0.3349251080   -0.9838025200    1.0820819389
 O    0.0764158960   -0.4843129079    2.3805569421
 C    0.0317150763   -0.0333595927   -0.0339277139
 H   -0.3140574612    1.8414387173    1.0899500112
 H   -0.3843964975    2.0603417536   -0.7326606901
 H    1.8937769807    0.8878680490   -0.8549154409
 H    3.1471213664   -0.9253072977    1.1646033855
 H    3.0651716785   -0.0281030259    2.6921493589
 H    1.5555387121   -1.7363030012    3.2278734830
 H    1.2749270939   -2.3787080103    0.3130874112
 H    0.2400682684   -3.0568374804    1.6072714142
 H   -1.4011664766   -1.2340931299    1.0712846639
 H   -0.1860459525   -0.4400454032   -1.0198954155