18

 C   -0.0035749040    1.5537330131   -0.0563168795
 C    0.0115009132    0.0463764847   -0.0245338393
 C    0.5748752143   -0.9536638462   -1.0450934430
 N    0.0093105615   -1.9027004204    0.0141692663
 C    0.5847422131   -0.9191267399    1.0626392813
 C   -0.3219878305   -0.9948587254    2.2779748435
 C   -1.6636532213   -0.9600131879    1.5295211713
 O   -2.7818136883   -0.9285892408    1.9683029699
 C   -1.2062601508   -0.9373677376    0.0892895635
 H    1.0161021425    1.9514453549   -0.1017758414
 H   -0.5476500294    1.9222049809   -0.9323491596
 H   -0.4873604862    1.9662775573    0.8357050899
 H    0.0794314357   -1.0387612708   -2.0164147735
 H    1.6627780692   -1.0219815915   -1.1524723339
 H    1.6651176353   -0.9917849209    1.1999376075
 H   -0.2086629220   -1.9277228534    2.8393390591
 H   -0.2206125438   -0.1566372841    2.9737813246
 H   -1.9489911888   -1.0269438720   -0.7024531167