20

 C   -0.0538389458    1.5381538684   -0.0362405889
 C   -0.0121507759    0.0068816927    0.0054272663
 C   -1.4448446559   -0.5631843301    0.0910200105
 C    0.7094107770   -0.5219025282   -1.2465397657
 N    0.9418789119   -1.9587018961   -1.1583982365
 C    1.4437169677   -2.4430880433    0.0105613136
 C    1.4088159000   -1.7542963293    1.1791557749
 C    0.7394449023   -0.4663076569    1.2798093614
 O    0.6842459683    0.1834125120    2.3111609557
 H    0.9499097084    1.9601049124   -0.1542531364
 H   -0.6739092822    1.8900015769   -0.8679321798
 H   -0.4631678679    1.9215764969    0.8996934999
 H   -2.0419727114   -0.2243296661   -0.7633900724
 H   -1.4449654368   -1.6566611636    0.0923818269
 H   -1.9315446724   -0.2183224823    1.0072680686
 H    0.1151097645   -0.3152110657   -2.1426603418
 H    1.6723758487    0.0052937230   -1.3514324337
 H    1.2130784801   -2.4305684607   -2.0056109135
 H    1.8634969557   -3.4437421135   -0.0438494049
 H    1.8211416337   -2.1837649366    2.0830435257