15

 O   -0.0529674223    1.3750783841    0.0530598012
 C    0.0336819539   -0.0028143469    0.0463370979
 C    0.9531452724   -0.7084609026    1.0405218809
 C    0.6096844072   -2.1679503776    0.6946980497
 O    1.0577622750   -3.1697101183    1.1852086317
 C   -0.4161026105   -2.0290325835   -0.4007749230
 C   -1.3081297372   -0.7805396874   -0.0842553942
 O   -1.4113092985   -0.4505285102   -1.5087884455
 C   -0.0083779991   -0.8186642601   -1.3043665176
 H    0.8366799067    1.7430229941    0.0318633053
 H    2.0177236391   -0.5040460099    0.8776947376
 H    0.7186750802   -0.4768426831    2.0845625674
 H   -0.8700653165   -2.9042606190   -0.8556836361
 H   -2.2082343596   -0.7274494024    0.5282625228
 H    0.6607086891   -0.8131340774   -2.1654248883