11

 O    0.0126701520    0.2105019426   -0.6663129032
 N   -0.0304611539    1.2227572250    0.0070228502
 O    0.8630842297    1.7110299521    0.6726624434
 C   -1.3406901432    1.9556736476    0.0178082723
 N   -1.2616029472    3.2657868354   -0.0940371372
 C   -2.4600869533    3.8580177117   -0.0982736233
 N   -3.6318031469    3.2372723470    0.0365288625
 C   -3.5459362778    1.9130617827    0.1610343326
 N   -2.4142385562    1.2018355526    0.1377285898
 H   -2.4744049872    4.9378460152   -0.2178098524
 H   -4.4720417460    1.3592781582    0.2882160054