16

 C   -0.0858075230    1.5870132426    0.0685517249
 C   -0.0227025918    0.0814173624   -0.0336155292
 O   -1.1401046491   -0.5839888610    0.4781149469
 C    0.5742955823   -0.6108763185   -1.2016088030
 N    1.0545176731    0.0927264089   -2.3471058820
 C    1.3188418653   -0.6656914457    0.1733184753
 C    2.5353017924    0.0650933396    0.3159787862
 N    3.5116356932    0.6860148167    0.3862004995
 H    0.8285912016    2.0700628857   -0.2817157596
 H   -0.9315782230    1.9630188440   -0.5138454049
 H   -0.2242937045    1.8871327027    1.1136924954
 H   -1.2346214138   -0.3408383418    1.4068825768
 H    0.0935131470   -1.5516365767   -1.4493795611
 H    1.5293553695    0.9523339612   -2.0924869334
 H    1.7314064920   -0.4740381840   -2.8488402357
 H    1.2538861786   -1.5986937560    0.7217782039