17

 O    0.4464523672    0.5592959613   -0.8711641281
 C   -0.2137901284   -0.2845780926    0.0321287279
 C    0.2415703507   -0.3546805270    1.5150726396
 C   -1.2481194122   -0.4666132042    1.9300126377
 C   -1.6483715400    0.0729606233    0.5092256706
 C   -1.7255561306   -1.8876569272    2.1413088641
 O   -1.0434142373   -2.8680351841    1.9293614049
 C   -3.1040145585   -2.0091937454    2.5926777395
 C   -4.2448880060   -2.0924409642    2.9680165822
 H    0.4740067673    1.4443400157   -0.4918206178
 H   -0.1929034574   -1.2792518829   -0.4199174659
 H    0.8971942680   -1.1764348896    1.8039406084
 H    0.6701065159    0.5970491500    1.8457160775
 H   -1.5897864462    0.1499835082    2.7645467702
 H   -1.8011747909    1.1563125812    0.5400174485
 H   -2.4980015593   -0.3889915584    0.0012075128
 H   -5.2508871723   -2.1859465240    3.2987725478