15

 C   -0.0517980329    1.5945041011    0.0138720212
 C    0.0160208225    0.0529695888    0.0363763408
 O    0.6751406399   -0.4022525375    1.2280294168
 C    2.0222478692   -0.2299197068    1.3252079335
 N    2.5702679680   -0.3736944346    2.4485150909
 C   -1.3297915568   -0.5244346544    0.0600399699
 C   -2.4475238402   -0.9584617197    0.0639032255
 C    0.7187582331   -0.4335342055   -1.1812056938
 N    1.2754504367   -0.7810036502   -2.1318116851
 H    0.9559687721    2.0154195856   -0.0169181945
 H   -0.6077725332    1.9361902868   -0.8613318592
 H   -0.5580193017    1.9282515440    0.9213736626
 H    2.5151424696   -0.0069658527    0.3725624545
 H    3.5787613933   -0.2620216744    2.3632419627
 H   -3.4325732896   -1.3576926704    0.0717937441