18

 O   -0.1121425360    1.3509718391   -0.3337154666
 C   -0.0514470680   -0.0062198059   -0.0743929657
 C    0.6264634771   -0.9492757428   -1.1000642400
 C   -0.6283468173   -1.8743090207   -1.1180172054
 C   -1.3024844435   -1.0365207647   -0.0118402647
 N   -0.8603830940   -1.4179758899    1.3489001883
 C    0.1546901896   -0.3298749438    1.4133091237
 C   -2.6893698777   -0.5402384860   -0.1993315133
 O   -3.2526283186   -0.4718034749   -1.2667630944
 H   -0.2065910125    1.4861983897   -1.2831234362
 H    0.8280151022   -0.4574892204   -2.0571301165
 H    1.5571224383   -1.4031707750   -0.7499124532
 H   -1.1877240014   -1.8180666736   -2.0540387697
 H   -0.4620815383   -2.9158022463   -0.8418433104
 H   -1.5896280510   -1.3356573765    2.0502219268
 H    1.1530290998   -0.6639382890    1.7172695185
 H   -0.1389990574    0.5292481893    2.0275471754
 H   -3.1810714814   -0.1745064185    0.7341035233