18

 C   -0.7125961115    1.3861482503   -0.0550420019
 C    0.0201137403    0.0606449492   -0.0472582587
 O    1.2947198501    0.1273075280   -0.7536990136
 C    1.9747901709   -0.5542638534    0.3091900732
 C    3.1828031207    0.1409809299    0.7668400367
 N    4.1161800303    0.6807149862    1.1851323394
 C    0.7258715936   -0.4665253663    1.2346174854
 C    0.8362193810    0.4643054347    2.4411659613
 O    1.6525132739   -0.0999636857    3.4520003755
 H   -0.1120469250    2.1880697431    0.3802626020
 H   -0.9517278581    1.6630022836   -1.0863250560
 H   -1.6536113085    1.3060460497    0.4993037629
 H   -0.6107431899   -0.7120150902   -0.5069681737
 H    2.2525506777   -1.5780761027    0.0274117466
 H    0.3819299814   -1.4434153129    1.5784710793
 H    1.2029671914    1.4539189454    2.1397079339
 H   -0.1592573216    0.6035257716    2.8770453727
 H    2.5700747934    0.1027488896    3.2392976152