23

 C    0.1037153204    1.4782356955    0.1342817922
 C   -0.0709848583   -0.0409888282    0.0120009852
 C   -1.5509396597   -0.4245199509   -0.0302725594
 O   -2.1605622637   -0.0023819777    1.1824060614
 C    0.6648290459   -0.5979006664   -1.2050661767
 C    2.2173144886   -0.4944134404   -1.2502295892
 C    2.2526462135   -1.8877284042   -1.9048397904
 O    3.3067628580   -2.7066338124   -1.4544660739
 C    0.8143167428   -2.1393626419   -1.3743691172
 H    1.1580747773    1.7476143674    0.2487388785
 H   -0.2759470935    1.9868152416   -0.7607338600
 H   -0.4470923620    1.8586035849    0.9971190577
 H    0.3516563071   -0.5120061492    0.9110701226
 H   -2.0284841547    0.0548447980   -0.9021473541
 H   -1.6492433576   -1.5137517002   -0.1596861587
 H   -3.0964168063   -0.2176564671    1.1399187020
 H    0.2384582217   -0.1619943747   -2.1178769585
 H    2.6769610565    0.3394680965   -1.7846867454
 H    2.6442329623   -0.5558005741   -0.2437851320
 H    2.2538457952   -1.8068530508   -3.0018495520
 H    3.2564931315   -3.5484736189   -1.9183501192
 H    0.8633795575   -2.6388957825   -0.4009274663
 H    0.1066662073   -2.6686121344   -2.0180778266