18

 C   -0.1307463352    1.5218694701    0.1098756389
 C    0.0502712407    0.0009584318    0.0269140368
 O    0.7201552241   -0.4062283560   -1.1662880575
 C    2.0814366894   -0.0372413479   -1.2479113731
 C    2.8480144524   -0.2855657293    0.0164281356
 C    2.2350079282   -0.5621589770    1.1733230397
 C    0.7787922537   -0.5520455200    1.2390624179
 N    0.0475846533   -0.9186171247    2.2269322855
 O    0.8059409343   -1.3773165584    3.3130962049
 H    0.8237743521    2.0380863292    0.2508636189
 H   -0.5981977372    1.8915059278   -0.8074598484
 H   -0.7736962230    1.7690704417    0.9588523983
 H   -0.9330614223   -0.4713886314   -0.0325623925
 H    2.5032333008   -0.6322146449   -2.0671161711
 H    2.1963294475    1.0214152614   -1.5460762130
 H    3.9316098895   -0.2329882322   -0.0479289956
 H    2.7863481501   -0.7788520447    2.0792121415
 H    0.1239353917   -1.5992231457    3.9552856934