15

 O   -0.2118624564    1.4011098889   -0.0457400667
 N   -0.0150052576    0.0424542165    0.2506489842
 C   -1.0681550293   -0.6263252829    0.0364283628
 C   -2.4829077023   -0.3606755722   -0.4330695766
 C   -2.7943596709   -1.8740579288   -0.1942264360
 C   -1.3134865211   -2.1216038099    0.2162915226
 C   -0.4852357580   -2.9648310481   -0.7350373586
 O   -0.9285294837   -3.5624070672   -1.6805982692
 H    0.6462530775    1.7833846173    0.1681076606
 H   -3.0339972872    0.3503555834    0.1885283873
 H   -2.5515652621   -0.0266007066   -1.4726498556
 H   -3.5127592819   -2.0626483757    0.6039894776
 H   -3.0819244160   -2.4344954920   -1.0839339497
 H   -1.1349266978   -2.4791701189    1.2371241481
 H    0.6015331467   -2.9697455439   -0.5019525008