19

 C    0.1778268101    1.3349239477   -0.0839287232
 N    0.0530004563   -0.1007325695    0.0327219519
 N    0.0407112939   -0.8635740348   -1.0846620421
 C   -0.0660072848   -2.1141955555   -0.6436857572
 C   -0.1489582119   -3.2547184074   -1.6071240144
 O    0.6484648551   -4.3247167253   -1.1099398880
 C   -0.1135106362   -2.1602015036    0.7658271036
 C   -0.0311882448   -0.8430692828    1.1724533297
 C   -0.0186018554   -0.2312904165    2.5347299693
 H    1.1085486441    1.6927295585    0.3700516989
 H    0.1838697738    1.5730786397   -1.1468087404
 H   -0.6640684418    1.8451824174    0.3957325941
 H   -1.1977931208   -3.5774758768   -1.7160383387
 H    0.1907258463   -2.9068712509   -2.5931328139
 H    0.4910807929   -5.0905368339   -1.6701154089
 H   -0.1819085722   -3.0326629857    1.3947450064
 H    0.9057136937    0.3268372981    2.7264645012
 H   -0.8536958130    0.4642326102    2.6813666043
 H   -0.0988329952   -1.0126096388    3.2930562976