16

 C    0.0715958717    1.4919030576   -0.0395474073
 C   -0.0635981631    0.0063165196    0.0044568416
 C   -1.2174989585   -0.6985578298   -0.0785532200
 C   -1.1246516909   -2.1249203497   -0.0150976575
 C   -2.3781185846   -2.9484237471   -0.1030126212
 N    0.0091554354   -2.7596619967    0.1171375646
 C    1.1857135890   -2.0551668417    0.2021233920
 O    2.2837162557   -2.5072616762    0.3238200184
 O    1.1064215310   -0.6218402446    0.1397698913
 H    0.7161863104    1.7856916993   -0.8744652859
 H   -0.9025714345    1.9701812359   -0.1510483504
 H    0.5486250111    1.8527936543    0.8775520425
 H   -2.1689191142   -0.1970212128   -0.1883603830
 H   -2.9002221879   -2.7479179660   -1.0455261535
 H   -2.1355293453   -4.0088447388   -0.0391305308
 H   -3.0673467555   -2.6806242632    0.7059237992