17

 C   -0.5686176566    1.4836044277    0.2965858887
 C    0.0114201797    0.1727898346   -0.2523758357
 C    1.0172342859   -0.4203015146    0.7011050713
 O    0.5238330181   -1.0604992112    1.8672698054
 C    1.2193049480   -1.8809553926    0.9319395854
 C    0.4177758333   -2.9052409856    0.1991627674
 O   -0.7855143813   -2.8991329733    0.0709383961
 C    1.2117896485   -4.0465263082   -0.4508577539
 O    2.4079691281   -4.1540949286   -0.3828301805
 H    0.2154884399    2.2298658819    0.4644825226
 H   -1.2920758068    1.9096157329   -0.4039031194
 H   -1.0782033759    1.3088419998    1.2484777492
 H   -0.7905860742   -0.5481152276   -0.4266715049
 H    0.5118526880    0.3560240926   -1.2117875385
 H    1.9047171627    0.1922743621    0.8813089318
 H    2.2090497713   -2.2133501988    1.2368948997
 H    0.5587419511   -4.7613872811   -0.9940110747