17

 C    0.0607753040    1.5640425872    0.1342907790
 C    0.0056499053    0.0448041114   -0.0965585436
 C   -1.3927645075   -0.5172371574   -0.0387217444
 C   -2.0271596669   -0.9818899373   -1.1378470014
 O   -3.2759066801   -1.4757458153   -1.1379052046
 C   -4.0575012223   -1.5568836755    0.0306308816
 O   -5.1655824891   -2.0094502386   -0.0701215855
 C   -3.3963983644   -1.0728674307    1.2262246202
 C   -2.1357804788   -0.5800467499    1.1890997122
 H    1.0936812713    1.9238278398    0.1069416107
 H   -0.5081909550    2.0962435234   -0.6341460579
 H   -0.3618172408    1.8356296262    1.1071571462
 H    0.4483461190   -0.1930778838   -1.0700707147
 H    0.6294931565   -0.4576669993    0.6538715337
 H   -1.5885537710   -1.0040428812   -2.1299413634
 H   -3.9726896798   -1.1349521185    2.1405797927
 H   -1.6666646004   -0.2281790705    2.1043289492