17

 O   -0.1890046209    1.3093125867   -0.0181641932
 C    0.0094784092   -0.0602154476    0.0294281829
 C   -0.4851673271   -0.8065967982    1.2223699422
 C    1.0180634266   -0.7800580194    0.9171906741
 C    1.5142225445   -1.9186943004    0.0924565752
 C    0.9577450662   -1.9458989411   -1.1258401290
 C    0.0461657623   -0.7859993623   -1.3030699955
 C   -1.0059939137   -0.6218494351   -2.3113316238
 O    0.2368497218    0.0789133142   -2.4504227159
 H    0.2021058584    1.6010099449   -0.8538020412
 H   -0.8176092161   -0.1806008416    2.0443286889
 H   -1.0219350240   -1.7421423558    1.1018122377
 H    1.6724343219   -0.2547307537    1.6023583939
 H    2.2170274953   -2.6537189157    0.4687408870
 H    1.1247534241   -2.6851580008   -1.8984674065
 H   -1.1804371115   -1.4023396053   -3.0504537682
 H   -1.8667530968    0.0019090011   -2.0736678787