13

 C    0.0260327470    1.3961679077    0.0858262759
 N    0.0044550694   -0.0438380072   -0.0016475129
 C   -0.1632783963   -0.8380497807   -1.0700666959
 N   -0.1157825245   -2.1133318162   -0.7253412203
 C    0.0934302808   -2.0401009393    0.6211859241
 N    0.2696010333   -3.1717210511    1.3919875828
 N    0.1698518941   -0.8102707916    1.1182057249
 H    0.9903112132    1.7393806165    0.4709923744
 H   -0.1328571284    1.8114639976   -0.9112630202
 H   -0.7648659029    1.7478560993    0.7542519712
 H   -0.3153345910   -0.4528849397   -2.0677245046
 H   -0.1848424103   -3.9854011287    1.0046548178
 H    0.0653484756   -3.0336154166    2.3707963129