13

 O   -0.0111351754   -0.0377728194    0.2105822204
 C   -0.0347827232    1.1645479920    0.0952344641
 N   -1.1783611916    1.9050711150    0.0168614867
 C   -1.1831356752    3.3447222804   -0.1703492087
 C    0.0000813410    3.9150100005    0.5874447219
 O    1.2276202030    3.3225029545    0.1446729142
 C    1.2883616564    1.9739191702   -0.0083774397
 O    2.3261864194    1.4383734077   -0.2514318886
 H   -2.0372801427    1.3766927033   -0.0402516807
 H   -1.1225801696    3.6208983183   -1.2325762990
 H   -2.1116918765    3.7605654063    0.2321904592
 H    0.1081072346    4.9863466830    0.4089224106
 H   -0.1195046900    3.7445591483    1.6642190996