25

 C    0.1161699149    1.5942521815    0.2151627867
 C    0.2576674805    0.0706137030    0.1039518083
 C    0.7253049031   -0.4699905166   -1.2697425171
 C   -0.2003731620   -0.0117622448   -2.4016081248
 C    2.1964706541   -0.0951917159   -1.5323411257
 O    2.9826336547   -0.9860254005   -0.7517885962
 C    2.2715867224   -2.2134328072   -0.5968448746
 C    0.8875700570   -2.0224957799   -1.2476278072
 C   -0.2210674685   -2.8500615759   -0.5987581093
 H    1.0501052136    2.1160020779   -0.0171155816
 H   -0.6581891587    1.9846957146   -0.4518691145
 H   -0.1638389036    1.8729437277    1.2359522750
 H    0.9601470357   -0.2735449870    0.8718903455
 H   -0.7107213543   -0.3812744321    0.3478682537
 H   -0.1888162217    1.0756282136   -2.5230776714
 H    0.1018460445   -0.4525765331   -3.3575481921
 H   -1.2378826702   -0.3078489915   -2.2101207803
 H    2.4293176831   -0.2046476098   -2.6052800904
 H    2.4571819078    0.9254483351   -1.2377322518
 H    2.8327358740   -3.0342350432   -1.0636259820
 H    2.1888688847   -2.4368940078    0.4759393645
 H    0.9654037214   -2.3340058609   -2.2976854299
 H   -0.3133050798   -2.6423513406    0.4714497767
 H   -1.1924325086   -2.6576496585   -1.0665263714
 H   -0.0137781241   -3.9200984181   -0.7078042202