16

 C    0.0063529034    1.4502144712   -0.0190457778
 N    0.0042303222    0.0051190209    0.0665861127
 N   -0.0331693938   -0.7383974671   -1.0682242994
 N   -0.0267117027   -1.9863750335   -0.7250317995
 C    0.0148677535   -2.0706186961    0.6447638049
 C    0.0325362616   -3.2913402578    1.3561075098
 C    0.0481453973   -4.3184625322    1.9839162502
 C    0.0354198168   -0.7850217617    1.1651410551
 C    0.0806480186   -0.2883262932    2.5670008156
 H    0.9124097430    1.8649648881    0.4322201943
 H   -0.0239310303    1.7085164640   -1.0772630919
 H   -0.8689559108    1.8707708722    0.4845395427
 H    0.0611601304   -5.2317893454    2.5252057686
 H    0.9756736317    0.3151464505    2.7570488356
 H   -0.7914060789    0.3299900153    2.8088466604
 H    0.0936866878   -1.1396619052    3.2501861187