14

 O   -0.0857957045    1.4496273200   -0.0741389472
 C   -0.0250806651    0.0436328104    0.0378144940
 C    0.2394823025   -0.5938987467    1.4506856681
 C   -1.1177550412   -1.2969714448    1.3455064882
 C   -2.2031926527   -0.2723891763    1.1972037600
 C   -1.3865356661   -0.6356773517   -0.0126336293
 H    0.8089414498    1.7957856694    0.0041456940
 H    0.6591756008   -0.3805827402   -0.7094970227
 H    1.0982681927   -1.2693360900    1.4523981317
 H    0.3400628006    0.1192895117    2.2757058676
 H   -1.3209244059   -2.3177435861    1.6437257895
 H   -3.2172068570   -0.6587869360    1.1913363825
 H   -2.0978225163    0.7098991959    1.6489659194
 H   -1.8406638277   -1.0509218456   -0.9038788358