19

 C    0.0697161938    1.4974935248   -0.0003902466
 O    1.2087623235    0.6241911635    0.0013176777
 C   -0.0982800065    0.0454865972    0.0054407668
 C   -0.5041287644   -0.8109420070    1.2193563340
 C   -1.1191956710   -2.0711986962    0.5258144500
 C   -0.1830941038   -2.2031199388   -0.7026496196
 C   -0.5147380717   -0.7843450290   -1.2276253548
 C   -2.0389622088   -0.8311167116   -1.1966645965
 C   -2.3962376343   -1.5964372751   -0.1615141130
 H   -0.0822294315    2.0667159772    0.9163873209
 H   -0.0843087892    2.0610270261   -0.9208436686
 H    0.3906966378   -1.0637555577    1.7958696172
 H   -1.2119273930   -0.3101912116    1.8837077989
 H   -1.2140296866   -2.9403590494    1.1767653136
 H    0.8713849336   -2.3283228127   -0.4363540649
 H   -0.4932329290   -2.9924683613   -1.3909658051
 H   -0.0441551101   -0.4530967320   -2.1527141402
 H   -2.6844845495   -0.2527675531   -1.8451510492
 H   -3.3973919893   -1.7758245031    0.2102991692