22

 C   -0.1939824439    1.5235449227    0.0327175711
 C    0.0698205109    0.0219353539    0.0337400373
 O    1.2044598131   -0.4231486104    0.0791515849
 N   -1.0474684989   -0.7588357233   -0.0124889236
 C   -1.0621692503   -2.2335439983   -0.0041908927
 C   -0.3271992605   -2.7866771296   -1.2369831653
 C   -0.4371842278   -2.7723234116    1.2939301697
 C   -2.5530157955   -2.6159910587   -0.0671630715
 O   -2.6604570144   -4.0254756007   -0.0624524415
 H    0.3918753894    1.9787757232   -0.7694680508
 H   -1.2456339566    1.7937701502   -0.0955207172
 H    0.1655197357    1.9428215258    0.9766848421
 H   -1.9374738690   -0.2886011564   -0.0421624125
 H    0.7245112460   -2.5012191650   -1.2045430927
 H   -0.4108665291   -3.8753423393   -1.2593726570
 H   -0.7686877045   -2.3878680742   -2.1564957515
 H   -0.9578957178   -2.3651917427    2.1672338668
 H   -0.5206969648   -3.8608964545    1.3206937962
 H    0.6130321004   -2.4848475150    1.3503527962
 H   -3.0720408317   -2.1729667302    0.7998674148
 H   -2.9936589746   -2.1844680483   -0.9818932552
 H   -3.5913720861   -4.2600130978   -0.1053359276