20

 C    0.0999531355    1.3826274103    0.1063219022
 O   -0.0217676894   -0.0224638691    0.0888776379
 C   -1.3481899776   -0.5718377652    0.0037374849
 C   -2.1997650708   -0.1738373985    1.2272088196
 C   -2.0449767748   -0.1548593661   -1.3081604732
 C   -1.1514311158   -2.0281573755    0.0048483844
 C   -1.0297425453   -3.2253530510    0.0033176869
 C   -0.8628131811   -4.6716705709    0.0026714444
 H    1.1708741446    1.5913125332    0.1737382106
 H   -0.2845783191    1.8576124608   -0.8070324782
 H   -0.3941258928    1.8450339981    0.9722084446
 H   -2.4251634134    0.8965554236    1.2231851134
 H   -3.1475550516   -0.7178332902    1.2146959948
 H   -1.6680639108   -0.4225451264    2.1487760270
 H   -1.4048627343   -0.3901753075   -2.1618188427
 H   -2.9866939047   -0.6982130997   -1.4191859184
 H   -2.2702748212    0.9155360372   -1.3155711626
 H   -1.3788120870   -5.1343234936    0.8512718569
 H   -1.2619875291   -5.1200760872   -0.9138527561
 H    0.1960327288   -4.9445765322    0.0705624136