19

 C    0.6889061069    1.4460927714   -0.6573934800
 O    0.0603939241    0.1904910038   -0.4902138643
 C    0.2441048079   -0.3946796941    0.7718461230
 C   -0.6521076795   -1.6584228646    0.7540659173
 C   -0.8448802696   -2.3036685677    2.0440933851
 C   -1.0221017879   -2.8345288666    3.1082323071
 C    1.7204417896   -0.7811692875    1.0323810334
 C    2.1724117911   -0.8164385336    2.4764704763
 O    2.4558645973   -1.0312003717    0.1074699121
 H    1.7819264748    1.3634809364   -0.6322839499
 H    0.3852438478    1.8213161936   -1.6370280293
 H    0.3627484518    2.1630710933    0.1123558141
 H   -0.0988592689    0.2819215699    1.5728117935
 H   -1.6190797082   -1.3387948899    0.3498849786
 H   -0.2254846420   -2.3612734756    0.0289531039
 H   -1.1842693796   -3.3131545240    4.0422861246
 H    2.1512406255    0.1989489796    2.8908914240
 H    1.4872765558   -1.4204012222    3.0794580869
 H    3.1869494532   -1.2122760003    2.5369448336