18

 C    0.0401017247    1.5383995964    0.0527751527
 C   -0.0386949371    0.0478038546    0.0121475299
 C    0.8734173846   -1.0064045292   -0.5468572432
 C    0.4981736691   -1.0424217284    0.9340790898
 C   -0.7602438177   -1.9293401585    0.8150488098
 O   -1.4372187135   -2.1656130484    1.9988761920
 C   -0.4311093185   -2.9747292509   -0.2745855718
 N   -0.2075315780   -1.8106206910   -1.2064470546
 C   -1.1660312657   -0.9514520893   -0.3576159397
 H    1.0483625467    1.8650054149    0.3296283701
 H   -0.1957958346    1.9767768573   -0.9236192626
 H   -0.6567107281    1.9564488183    0.7879209773
 H    1.8816810540   -0.9412029047   -0.9368127972
 H    1.2005787065   -0.9776793353    1.7540474385
 H   -2.2408654636   -2.6571191887    1.7975626236
 H    0.4228037718   -3.6457072642   -0.1415323692
 H   -1.3090546645   -3.5401403830   -0.6079254389
 H   -2.1689853360   -0.7543734698   -0.7348217766