19

 O   -0.1572526300    1.4252095865   -0.0828541759
 C   -0.0773768778    0.0317518288   -0.0068464405
 C   -0.5479699564   -0.6808157740    1.2420339120
 C   -1.3747888854   -0.7112460926   -0.0146020067
 C   -2.7282105577   -0.0486081015   -0.2810617342
 C   -2.8982243027   -1.0170300833   -1.5047261703
 C   -1.7238702940   -1.8859431433   -0.9312635329
 C   -4.1831530446   -1.6497470802   -1.7127480597
 C   -5.2505130416   -2.1844689186   -1.8621533640
 H    0.5069008740    1.7961612745    0.5072062932
 H    0.7572972171   -0.4106293843   -0.5537940885
 H   -0.0290460978   -1.5828543540    1.5523715305
 H   -0.9108209009   -0.0584348772    2.0547275104
 H   -3.4662056823   -0.2537524621    0.4988569124
 H   -2.7145041389    1.0197452363   -0.5011508731
 H   -2.5750935936   -0.5141978651   -2.4213518562
 H   -0.9662875698   -2.2167293786   -1.6466051478
 H   -2.1014887233   -2.7527657540   -0.3819886656
 H   -6.1927726542   -2.6532378074   -2.0012872330