20

 C   -0.0645784502    1.7273206031   -0.2128162120
 C    0.1454593010    0.2376511937   -0.0074159790
 O    0.5177453507   -0.3386764089   -1.2506388986
 C    0.7493832182   -1.7301842371   -1.1939794274
 C    0.7475269127   -2.2813809685   -2.6278620073
 C   -0.5936121631   -2.0766816737   -3.3355418074
 C    2.1024521969   -2.0222569309   -0.5498813584
 O    2.4021388541   -3.0673021259   -0.0351280300
 H    0.8561806332    2.2005065877   -0.5652828575
 H   -0.8472209638    1.9046216269   -0.9558534123
 H   -0.3622645416    2.2022217020    0.7265878646
 H    0.9256068396    0.0597233545    0.7508510941
 H   -0.7759966473   -0.2400420340    0.3630831257
 H   -0.0304157554   -2.2404890567   -0.6057338966
 H    1.5482737981   -1.7853653131   -3.1902115882
 H    1.0021295036   -3.3452559168   -2.5750298939
 H   -0.5519551326   -2.4548198900   -4.3612163245
 H   -1.3986411335   -2.6066500498   -2.8147750694
 H   -0.8528754328   -1.0159941164   -3.3693462839
 H    2.8209118822   -1.1728534261   -0.6360995880