19

 O   -0.3824620441    1.2863888034   -0.2479965053
 C    0.0118007336   -0.0231971095    0.0148643555
 C   -1.1769033056   -0.9690513498    0.2359871641
 O   -0.5803906834   -1.5154149741    1.4394451183
 C    0.5331507886   -0.6018251401    1.3733095601
 C    1.8027670468   -1.1553030338    0.6553703648
 C    1.7063144014   -2.5896570618    0.0637648463
 C    1.2921961212   -1.9943290368   -1.3198778627
 C    1.2917708545   -0.5683316404   -0.7050201826
 H    0.4032883531    1.8212822910   -0.4014773155
 H   -2.0954893480   -0.4139211638    0.4598543788
 H   -1.3859544725   -1.7377653297   -0.5149930882
 H    0.6692472787   -0.0357620496    2.2993055670
 H    2.7543769691   -0.8568816915    1.0979772717
 H    2.6544501687   -3.1307833555    0.0499218915
 H    0.9502839026   -3.2094544694    0.5479284603
 H    2.0693080201   -2.1108416757   -2.0794171544
 H    0.3514440732   -2.3460777112   -1.7506763403
 H    1.8339192522    0.2080723384   -1.2531736092