17

 N   -0.0511074208   -1.0930594684   -0.3927561632
 C   -0.0380986539    0.0421437567   -0.1695410630
 C   -0.0148708896    1.4670236327    0.0973325058
 C   -0.3046212246    2.3559378841   -1.1604787808
 N    1.0710756476    2.9259787995   -1.1452900459
 C    1.4015556347    2.1588755907    0.0934457230
 C    1.3791470706    3.0003193486    1.3389679866
 C    0.2508461037    2.8584989340    2.0319910133
 C   -0.7113252006    1.8641153732    1.4250892087
 H   -0.5619429093    1.7933683693   -2.0612366737
 H   -1.0753919981    3.1133774736   -0.9837046631
 H    1.6131530894    2.5998003975   -1.9381694026
 H    2.2805504421    1.5133792760    0.0065522032
 H    2.1964487282    3.6645497469    1.5945959908
 H    0.0139365110    3.3853049489    2.9498975003
 H   -1.7034029090    2.2949427498    1.2427013118
 H   -0.8644776313    0.9963239171    2.0768463987