17

 C   -0.0413533911   -1.1964231975    0.3058436037
 C   -0.0504902255   -0.0079621094    0.1297886339
 C   -0.0425822002    1.4341074991   -0.1003231196
 C    1.3553364640    2.0068669031   -0.2145404273
 O    2.0127265403    2.3338178991    1.0321139014
 C    1.7309884302    3.3948728349    0.1127722328
 C    2.9090051319    3.7938992472   -0.7685579120
 C    3.1877216881    2.5261534793   -1.5532484142
 C    2.3203322422    1.5529316441   -1.2670978860
 H   -0.0386474272   -2.2448275320    0.4737464399
 H   -0.5965725326    1.6590248150   -1.0214298467
 H   -0.5607890138    1.9458271066    0.7182650782
 H    1.0197512688    4.1383424551    0.4645869783
 H    2.6485404342    4.6349389990   -1.4239523345
 H    3.7723116453    4.1103854716   -0.1707815242
 H    4.0274623306    2.4387686252   -2.2334115682
 H    2.3056248348    0.5549338796   -1.6860393756