16

 O    0.0079768945    1.4768220065   -0.1085528611
 C    0.0062963514    0.0814502339    0.0136819921
 C    0.9334559209   -0.5832491644   -1.0216584264
 C    2.3027197961   -0.0996587965   -0.8892765452
 C    3.4029732820    0.3632962210   -0.7392860436
 C    0.1248549470   -0.5221365486    1.4394814281
 O   -1.0891725159   -1.2780467111    1.2402524355
 C   -1.4084288961   -0.5250922440    0.0524341566
 H    0.9272208873    1.7657716691   -0.1788813331
 H    0.8947962049   -1.6714900720   -0.8967109281
 H    0.5552426689   -0.3573668141   -2.0264953672
 H    4.3895858563    0.7401862956   -0.6256266948
 H    0.9846580346   -1.1648172668    1.6580996875
 H    0.0158324408    0.2391046841    2.2223988668
 H   -2.1784762099    0.2355221120    0.2321135023
 H   -1.7095432429   -1.1694520647   -0.7816052192