19

 O    0.1117401108   -0.1166936809    0.4454190906
 C    0.0586371590    1.0152090532    0.0205788800
 C    1.2452183298    1.9029758448   -0.0472689476
 C    1.4718134136    2.8982519207   -1.1934813574
 C    0.4441400925    3.0948976538   -2.3102134096
 C   -0.6339097086    4.1049105821   -1.9019807731
 O   -1.1295038381    3.8370743575   -0.5984546885
 C   -0.1645589224    4.1230904525    0.3997729203
 C    1.1589674797    3.4105533436    0.1803426258
 H   -0.8948163306    1.4517999822   -0.3336106102
 H    2.1386500706    1.4179604911    0.3326360567
 H    2.5079394658    2.9519814357   -1.5102221474
 H    0.9536801235    3.4642493870   -3.2062040360
 H   -0.0223845954    2.1453538737   -2.5905308307
 H   -0.2266111984    5.1288243972   -1.9381521107
 H   -1.4946453293    4.0592136226   -2.5744387537
 H    0.0286608731    5.2093049540    0.4249529609
 H   -0.6200153192    3.8433265602    1.3547941087
 H    1.9757890437    3.8269398990    0.7627406718