21

 N   -0.1024623031    1.5083220651    0.1934969668
 C    0.0391558105    0.0582238587    0.0360759069
 C    0.7136328116   -0.4414781077   -1.2665953692
 C   -0.0643909219   -0.0641365211   -2.5307681514
 C    0.5965962456   -0.5922033709   -3.8077092462
 C   -0.1669168645   -0.2171067522   -5.0715454844
 O    0.5407022307   -0.7500461278   -6.1789574656
 C    0.7729896716   -0.4716115537    1.1986884258
 N    1.3764423690   -0.9019784437    2.0848166890
 H    0.8017201358    1.9607814961    0.0912340948
 H   -0.7054270002    1.8733685920   -0.5359995471
 H   -0.9729075633   -0.3660227293    0.0831427217
 H    1.7312932838   -0.0332528340   -1.3123419515
 H    0.8184330035   -1.5315543860   -1.2089596733
 H   -1.0888500102   -0.4560384246   -2.4567604406
 H   -0.1558242464    1.0281256777   -2.5966926940
 H    1.6184260406   -0.2027946166   -3.8921037102
 H    0.6825189127   -1.6845074290   -3.7646902979
 H   -1.1922606140   -0.6196614599   -5.0200199586
 H   -0.2529991819    0.8801558107   -5.1419569757
 H    0.0627155901   -0.5232047638   -6.9818166294