16

 N    0.3148360083   -0.0517691600    1.5611876206
 C    0.1240171004    0.5447680628    0.5895400760
 C   -0.0502734900    1.3047022271   -0.6665739189
 N    1.0729709905    2.1559948847   -1.0350762384
 C    1.2890696854    3.3232347646   -0.2157018556
 C    1.8985927141    3.2570016376    1.1883824937
 C    2.7084332067    3.7809868584    0.0383454522
 C    0.2906019526    4.3481683744   -0.4385180179
 N   -0.5286285079    5.1488144081   -0.5982516267
 H   -0.2316498230    0.5899136400   -1.4755151618
 H   -0.9502631993    1.9232049664   -0.5847902163
 H    1.9260366493    1.6231802243   -1.1465112034
 H    1.5366214274    3.9602646261    1.9289208248
 H    2.1165458124    2.2656591417    1.5659108336
 H    3.4939674450    3.1534016572   -0.3702815424
 H    2.9092448081    4.8434759967   -0.0220054996