15

 N   -0.1758443773    1.3062358538   -0.0943725008
 C    0.0675411258   -0.0368992424   -0.0359128941
 O    1.1589590640   -0.5539563290   -0.0335865240
 O   -1.1084822400   -0.7168237403   -0.0154911614
 C   -0.9813299054   -2.1440529002   -0.0074382382
 C   -2.4046171552   -2.7064686331   -0.0042617488
 C   -2.4085298637   -4.1632294573    0.0074199032
 C   -2.3830053869   -5.3643452559    0.0171683758
 H    0.6076469132    1.9076099842    0.0928420856
 H   -1.0966620226    1.6444933751    0.1269780605
 H   -0.4257093230   -2.4742082846   -0.8892231981
 H   -0.4257450143   -2.4649154239    0.8780230730
 H   -2.9399220925   -2.3193825304    0.8710906395
 H   -2.9380595525   -2.3330254930   -0.8865514049
 H   -2.3722344897   -6.4260608230    0.0253737827