17

 C   -0.1682831714    1.5696055446   -0.0259710220
 C   -0.0561614132    0.0422144153   -0.0133218399
 C    1.1885661291   -0.4864714178   -0.7846151789
 O    1.9086729561   -0.7267800285    0.4388316958
 C    0.7171493048   -0.5431660772    1.2357002670
 C    0.9080028176    0.2942517665    2.4028038786
 C    1.0481835957    0.9844823447    3.3769553019
 C   -1.3225745114   -0.5996601068   -0.3106325759
 C   -2.3712487794   -1.1353854744   -0.5541113150
 H    0.7996670745    2.0231355455    0.2025310584
 H   -0.4957206622    1.9108708143   -1.0122031260
 H   -0.8929876138    1.9122061760    0.7165877193
 H    1.0062477725   -1.4105052960   -1.3453977660
 H    1.6966670788    0.2431355008   -1.4239574102
 H    0.2980889581   -1.5124635390    1.5362796354
 H    1.1787140078    1.5908269926    4.2394548196
 H   -3.2975567637   -1.6080125807   -0.7700134222