23

 C    0.0207352555    1.5230682288   -0.0027353101
 C   -0.0553125094   -0.0046256093    0.0295140923
 O    0.6667219042   -0.5383869366    1.1394059136
 C   -1.4759648274   -0.5216701463    0.0195763782
 C   -2.5866656267   -0.2683057201   -1.0440795289
 C   -3.2443644244   -1.1927408412    0.0274854233
 C   -4.6525618608   -1.7244882707    0.0348283067
 C   -1.9184643436   -2.0134758131    0.0154629917
 C   -2.5764577875   -0.2823878909    1.1052959104
 H    1.0645487534    1.8468038440    0.0225644645
 H   -0.4487485611    1.9250610966   -0.9060951364
 H   -0.4937920954    1.9560824271    0.8636318928
 H    0.4638785923   -0.4065200127   -0.8502887038
 H    0.2264041222   -0.2316101105    1.9400938687
 H   -2.9779672227    0.7512231459   -1.1177922170
 H   -2.4237163656   -0.7057419208   -2.0341916061
 H   -4.8467639010   -2.3369103697   -0.8526861208
 H   -4.8335680079   -2.3479224556    0.9174983510
 H   -5.3834780652   -0.9082506396    0.0451580955
 H   -1.7033645553   -2.5832290599   -0.8941080561
 H   -1.6873604600   -2.5928923471    0.9133938340
 H   -2.4094013833   -0.7379023650    2.0871222669
 H   -2.9702446503    0.7346353166    1.1980230099