20

 C    0.1199457690    1.5599396943    0.0098820495
 C    0.0110457894    0.0286104558    0.0326866049
 C    0.7411810133   -0.5463444267    1.2544188543
 C   -1.4474301690   -0.4624361556    0.0148456384
 C   -2.2157241523   -0.0943405218   -1.2750472187
 C   -3.5616565891   -0.6399682567   -1.3000724427
 C   -4.6775455802   -1.1046471870   -1.2969853437
 C   -5.9382093343   -1.6274745481   -1.2975413816
 N   -7.0113939528   -2.0730123471   -1.2973675003
 H    1.1680607028    1.8736430783    0.0432484971
 H   -0.3204053666    1.9982891816   -0.8909145853
 H   -0.3851072308    1.9997308890    0.8782427553
 H    0.5055017537   -0.3617217532   -0.8691924559
 H    0.2850988396   -0.1907864585    2.1859161086
 H    0.7072119836   -1.6405977198    1.2630536886
 H    1.7925293282   -0.2419130192    1.2633197872
 H   -1.4642323162   -1.5522978353    0.1255209639
 H   -1.9863066854   -0.0541894462    0.8787737418
 H   -2.2775269882    0.9946454499   -1.3876118756
 H   -1.6660633848   -0.4635908335   -2.1514053261