18

 O   -0.0985227975    0.0071669066    0.1166013637
 C    0.0259616857    1.1901878741   -0.0878575698
 C    1.3033476510    1.9307674099   -0.0428851172
 C    1.2522631686    3.4199373279    0.2822302788
 C    1.6030229209    3.0060431516   -1.1042618470
 C    3.0632165788    2.7943185222   -1.5175816609
 N    3.6233359686    1.6354613331   -0.7840411938
 C    3.8070223749    1.8256817752    0.6617585913
 C    2.5831684524    1.1560367222    0.1555577461
 H   -0.8547226595    1.8275915648   -0.3376024800
 H    0.2631201908    3.8429787662    0.4350494801
 H    2.0054581479    3.8222009806    0.9475239257
 H    0.8791893916    3.2030344889   -1.8888950534
 H    3.1008154437    2.5605663947   -2.5860973744
 H    3.6817442266    3.6845384544   -1.3563132997
 H    4.6059373635    1.2283568251    1.0939099874
 H    3.7370189688    2.8264669604    1.0781205368
 H    2.4559777430    0.0832205919    0.2541118164