24

 C   -0.1445353191    1.4322498287   -0.4675604685
 C   -0.0287447002   -0.0393457247   -0.0581828123
 C   -1.3969365607   -0.7125840699    0.0977604376
 C   -1.3460767159   -2.2229256357    0.4193550559
 C   -0.7026174625   -2.5270777478    1.7803789465
 C   -2.7803100659   -2.7593123766    0.4161316734
 O   -3.5857500788   -2.4454689097    1.2772318945
 N   -3.0921027647   -3.5894917068   -0.6226595264
 C   -4.4113518516   -4.1646631997   -0.7954128375
 H    0.8412513080    1.8959428078   -0.5730399518
 H   -0.6673889124    1.5379484892   -1.4246825616
 H   -0.7050604338    2.0062704573    0.2784230378
 H    0.5620930294   -0.5826940344   -0.8083686021
 H    0.5332495328   -0.1074789199    0.8803853625
 H   -1.9767792884   -0.2144854021    0.8839049767
 H   -1.9642018410   -0.5730081637   -0.8327504574
 H   -0.7669520894   -2.7238019803   -0.3693074094
 H   -0.6613655905   -3.6058465414    1.9621115258
 H    0.3180165120   -2.1404173862    1.8353786479
 H   -1.2976712836   -2.0762821425    2.5788191872
 H   -2.3753906856   -3.8095191615   -1.2932690078
 H   -4.3762001953   -5.2598044242   -0.7761835900
 H   -5.0256378654   -3.8128469318    0.0342882583
 H   -4.8678978374   -3.8460925542   -1.7395221893