15

 C   -0.0061095308    1.5442343924   -0.0269333421
 C    0.0021357994    0.0082155696    0.0188145030
 O    0.7690173326   -0.4793901834   -1.1032027216
 C    1.8420408807   -1.2217582677   -0.6658873449
 O    2.6269882578   -1.7214869909   -1.4178788466
 C    1.7977272571   -1.2387853077    0.8180205470
 C    0.7441118444   -0.5396834588    1.2245429998
 C   -1.3580564960   -0.5326414386   -0.0467086540
 C   -2.4813268323   -0.9565470317   -0.0708785031
 H    1.0196551231    1.9182887221    0.0164367157
 H   -0.4735588737    1.8801919329   -0.9546865519
 H   -0.5729105395    1.9442929843    0.8177404097
 H    2.5397877505   -1.7568474157    1.4072038712
 H    0.4043066233   -0.3508051238    2.2339991626
 H   -3.4716455267   -1.3398319630   -0.1061918447