16

 O    0.5036600709    0.4662852845    1.0151446913
 C   -0.0649504640    0.2410332895   -0.2719596627
 C   -1.3795326096   -0.4785390230   -0.1916105350
 N   -2.4307373580    0.0449011065    0.7574222251
 C   -2.9393423771   -1.3509651711    0.7770634400
 C   -2.9793861132   -1.8331893752   -0.6709723579
 C   -1.7075287158   -1.9766767264    0.2347992837
 C   -2.2335424727   -0.7976380781   -1.4423452551
 O   -2.1329321642   -0.5037581720   -2.6002303666
 H    0.2577568441    1.3512955155    1.2973667961
 H   -0.2132356616    1.1805167525   -0.8200314617
 H    0.6460429721   -0.3607777097   -0.8481952461
 H   -1.9428793229    0.1725184450    1.6463337364
 H   -3.6581212503   -1.7127110998    1.5013029758
 H   -3.6403591084   -2.6159679498   -1.0156201348
 H   -1.1258801992   -2.8694547085    0.4155849915