23

 C   -0.1013348234    1.5291332037    0.0064388707
 C    0.0459679157   -0.0001358630   -0.0535777564
 C    0.8079608501   -0.3880950073   -1.3300247444
 C    0.7265587670   -0.5739157122    1.2184331624
 C    0.0882301978   -0.0502994481    2.5162520341
 O    0.6014474388   -0.7107120516    3.6600168279
 C    0.2650414521   -2.0819102358    3.6998184869
 C    0.4483255831   -2.7655575625    2.3755034636
 C    0.6895068662   -2.0856433862    1.2570836861
 H    0.8740089599    2.0116530836    0.1444770717
 H   -0.5269730621    1.9092434856   -0.9279311948
 H   -0.7549861992    1.8554563143    0.8198158359
 H   -0.9620479744   -0.4359072485   -0.1114035373
 H    1.8219107461    0.0294620439   -1.3183652356
 H    0.8956127685   -1.4698984988   -1.4593046486
 H    0.2989153796    0.0058681967   -2.2156703725
 H    1.7772617804   -0.2423354670    1.2032825141
 H    0.3040995157    1.0090739156    2.6695551442
 H   -1.0080688972   -0.1707894323    2.4614114474
 H    0.9146680696   -2.5340410591    4.4593561344
 H   -0.7750874337   -2.2180078467    4.0530535466
 H    0.3798602477   -3.8505253247    2.3718464484
 H    0.8464395619   -2.6231989696    0.3265759552