19

 O   -0.1089701705    1.4656312065   -0.0413108383
 C    0.0367620795    0.0454667982    0.0277837903
 C   -1.3711865858   -0.5272745276    0.1047365248
 O   -2.1078003857   -0.0639059390   -1.0155680767
 C   -1.5860134098   -2.0258540432    0.2410522155
 C   -1.6100668587   -2.3750953978    1.7398114162
 C   -1.3889964231   -1.0867844012    2.5320964142
 C   -2.2158472823   -0.3939801791    1.4179203988
 C   -2.8326748374   -1.8109601226    1.0646060834
 H    0.7303858011    1.8495173986   -0.3085750567
 H    0.5199726422   -0.3469054500   -0.8791366699
 H    0.6429903198   -0.2490436156    0.8935077520
 H   -1.8935148130    0.8755395547   -1.0853259133
 H   -1.4133967426   -2.7798490684   -0.5166247601
 H   -1.4431642322   -3.3957147962    2.0612384841
 H   -1.9401381485   -1.1143827948    3.4768967630
 H   -0.3701254717   -0.7317779259    2.7236417806
 H   -2.7662793821    0.5264229588    1.5985029728
 H   -3.8398598092   -2.1803512753    0.9486408292