17

 C    0.0700570600    1.4847639540    0.2034107391
 N    0.1392083163    0.0440312083    0.0531972970
 C    0.2095060746   -0.5664439086   -1.1642943578
 O    0.2199565183    0.0450092859   -2.2200070215
 C    0.2753879178   -2.0816724803   -1.1276583012
 C   -0.6892987317   -2.8219583579   -2.0881928130
 O    0.3963875580   -3.5215706379   -2.7241174449
 C    1.3677995722   -2.7306970305   -2.0145967463
 H    0.0871833025    1.9147591841   -0.7985783400
 H   -0.8530977498    1.7892828772    0.7088726422
 H    0.9240257663    1.8678253356    0.7729941757
 H    0.1351276289   -0.5295351507    0.8797889282
 H    0.2566651608   -2.4798870333   -0.1104621361
 H   -1.4072220744   -3.5067541036   -1.6233030712
 H   -1.2052854851   -2.1478328512   -2.7812342883
 H    1.8702652783   -2.0114038512   -2.6712105898
 H    2.1084885970   -3.3507765197   -1.4975208223