16

 C   -0.1771895968    1.4162771011    0.1238489469
 N   -0.1811953684   -0.0359805118    0.1287544442
 C    0.6509805041   -0.6406854289    0.8538498390
 O    1.5504935818    0.0668292541    1.6297902530
 C    2.4648125502   -0.5732324939    2.4259470406
 C    2.5323484527   -1.9000482984    2.4920726116
 N    1.6597724269   -2.6776930480    1.7402089504
 C    0.6925128129   -2.1481319453    0.8986094498
 N   -0.1292361886   -2.8171749471    0.1900203044
 H    0.7887579227    1.8190477690   -0.2081595281
 H   -0.9562322316    1.7722187613   -0.5534198501
 H   -0.3662642401    1.8267694700    1.1244824068
 H    3.0970104810    0.1109997416    2.9699703174
 H    3.2474978978   -2.4166340433    3.1148414826
 H    1.7198014098   -3.6810508105    1.7981022489
 H    0.0100332259   -3.8223739999    0.3165472127