20

 C    0.4278444655    1.4598048614    0.2843101181
 C   -0.2205806558    0.1539803177   -0.1893946319
 C    0.5316394914   -0.4659276414   -1.3506047857
 C    1.7936446047   -1.2829819781   -1.1235853393
 O    2.2105186247   -1.5692216223    0.1793213379
 C    0.5297469184   -1.9532095051   -1.6144154656
 O   -0.1240931522   -2.7599086382   -0.6734059683
 C    0.2158201894   -4.1319120716   -0.8112559058
 H    1.4458414987    1.2731961826    0.6384824026
 H    0.4822419429    2.1942576634   -0.5270497160
 H   -0.1426583108    1.9097970403    1.1030188713
 H   -0.2706591812   -0.5542011455    0.6416847481
 H   -1.2591290472    0.3358171733   -0.4922193091
 H    0.5377100384    0.1422533807   -2.2532019740
 H    2.6397659004   -1.1534454410   -1.7910584237
 H    1.5110828076   -2.1058709056    0.5753612046
 H    0.4513350404   -2.3150784868   -2.6397091528
 H   -0.0892983340   -4.5172560713   -1.7946368963
 H    1.2947195148   -4.2976301814   -0.6900530348
 H   -0.3255043960   -4.6752974409   -0.0334612293