21

 C   -0.0069890543    1.5080520000    0.0318042519
 C   -0.0137740297   -0.0247617467    0.0080401913
 C   -1.4459254599   -0.5433415230   -0.1130568721
 O   -1.9790162299   -0.0860155544   -1.3501438435
 C    0.9593169693   -0.6115047187   -1.0781337047
 C    1.9733883414   -1.2715059205   -0.1222019718
 C    1.0947837715   -2.0619604712    0.8694362145
 C    0.7499683711   -0.6012993149    1.2383267009
 O    2.1329070587   -0.2489306926    0.9164419694
 H    1.0128505251    1.8774320322    0.1567336477
 H   -0.4206134021    1.9065551502   -0.8976599649
 H   -0.6166695207    1.8896751044    0.8601518031
 H   -1.4682972681   -1.6419502438   -0.0674027024
 H   -2.0423755225   -0.1667001022    0.7348536260
 H   -2.8895493766   -0.3878377032   -1.4150554451
 H    0.4733103214   -1.3240906248   -1.7494931671
 H    1.4226951019    0.1703817675   -1.6834012923
 H    2.9148307735   -1.6482231809   -0.5224218161
 H    0.3234091179   -2.7358862311    0.4903424327
 H    1.6908770088   -2.5386474343    1.6481277268
 H    0.4337317530   -0.2888964119    2.2349627556