20

 C   -0.0881709448    1.4949407712    0.0298413001
 C   -0.0159461956    0.0408234576    0.0127283714
 C    0.0511433384   -1.1624425966    0.0178957747
 C    0.0695690361   -2.6279113180   -0.0174707067
 O   -1.2531255428   -3.1540338641    0.1132593191
 C    0.7875150534   -3.1784848790   -1.2770694148
 C    2.2316425322   -2.6708907800   -1.3631630645
 C    0.7310950493   -4.7103534295   -1.2934130669
 H    0.7686823307    1.9259918686    0.5592426320
 H   -0.0940047812    1.9090807924   -0.9843522934
 H   -0.9964231246    1.8403212493    0.5358402772
 H    0.6035733736   -3.0050908374    0.8656463257
 H   -1.8139730355   -2.6633428269   -0.4975217924
 H    0.2325538011   -2.7966669823   -2.1462948464
 H    2.8175328008   -3.0145414277   -0.5018294179
 H    2.7202360968   -3.0514182058   -2.2656438420
 H    2.2742501736   -1.5790184975   -1.3850094947
 H   -0.2970248265   -5.0662815918   -1.2042610777
 H    1.1605629073   -5.1030427866   -2.2204589337
 H    1.3054828577   -5.1290682759   -0.4579385192