16

 C   -0.0224857090    1.6366498588    0.0074251478
 C   -0.0369404212    0.0965130915    0.0455776484
 C   -1.4348651526   -0.4511644931    0.0126410600
 N   -2.1241762202   -0.7135917010   -1.0333131620
 O   -1.4422268799   -0.4407735226   -2.2153169204
 C   -2.1272314079   -0.6904199495    1.3367432669
 N   -3.3802464544   -1.2030596380    1.2578160762
 O   -1.5649799403   -0.4263733511    2.3857960947
 H    1.0067921285    2.0057826774    0.0361343754
 H   -0.4949143353    2.0103953539   -0.9051474922
 H   -0.5545175741    2.0464516048    0.8702442063
 H    0.5172491137   -0.3020421609   -0.8078304727
 H    0.4323005523   -0.2467081714    0.9697426393
 H   -2.0754423936   -0.7074895641   -2.8912200084
 H   -3.8048226027   -1.3622239029    0.3603114799
 H   -3.8985790232   -1.3418807218    2.1078420309