21

 C    0.1539954133    1.6266828385    0.1344175634
 C    0.1404453467    0.0985241448    0.0375123702
 C    0.7640823922   -0.4445568112   -1.2634129228
 C    2.3219042215   -0.3874801155   -1.2524195409
 O    2.4137671848   -1.7865659595   -0.9373095510
 C    1.0247269540   -1.9961013225   -1.2730478002
 C    0.3129771868   -2.9303952618   -0.3198201732
 C    0.0975549805    0.0727970489   -2.4454723515
 C   -0.4597819614    0.4805632934   -3.4307014788
 H    1.1735663301    2.0239372433    0.0831695376
 H   -0.4215343495    2.0779526515   -0.6783994051
 H   -0.2801227639    1.9546098730    1.0835067993
 H    0.6931253702   -0.3279761272    0.8818423448
 H   -0.8902661251   -0.2657508511    0.1151744910
 H    2.7629770623   -0.1505470076   -2.2285246747
 H    2.7786143688    0.2401437918   -0.4796314557
 H    0.9376124902   -2.3784949710   -2.3002082915
 H    0.3670796070   -2.5823576997    0.7138785449
 H   -0.7387616386   -3.0381016207   -0.6049107160
 H    0.7791156906   -3.9196925148   -0.3695364888
 H   -0.9478411707    0.8437599675   -4.3011085811