18

 C   -0.3731678325    1.4526426705    0.2809550889
 C    0.0200297586    0.0190708967   -0.0017668991
 C    0.5872926204   -0.6531413718   -1.1915401401
 C    1.7478536034    0.0212563485   -1.9425073094
 C    1.7730857120    1.5555828663   -2.1682336859
 C    2.4397214424    1.6943145435   -0.7694612592
 O    2.8951479166    2.6161814564   -0.1596898773
 C    2.4508664493    0.1535217629   -0.5711696792
 N    1.3460610503   -0.6165430119    0.1554533688
 H    0.2838789792    2.2128754826   -0.1314367442
 H   -1.3808245388    1.6309232313   -0.1103240175
 H   -0.4062789491    1.6055715116    1.3647140756
 H   -0.6898359066   -0.6534423385    0.4843425036
 H    0.1573842631   -1.5879020883   -1.5418717951
 H    2.1755006720   -0.5973757533   -2.7287246451
 H    2.4716345862    1.8561174770   -2.9567650508
 H    0.8300657384    2.0819149790   -2.3284919551
 H    3.4200224351   -0.2843244126   -0.3281902788