12

 O   -0.2793583682   -0.0173315725    0.0026300735
 C   -0.0839831996    1.1677122131    0.0085499778
 N    1.1523311204    1.7943890394    0.0015701624
 C    2.4102166368    1.2213830589   -0.0128097409
 C    3.6426385092    1.8141535494   -0.0186008883
 C    4.5172554943    0.7004718231   -0.0338786488
 N    3.8842841386   -0.4459559887   -0.0372055098
 O    2.5182678881   -0.1073487083   -0.0235091815
 H   -0.8892393804    1.9279256625    0.0198792443
 H    1.1432233864    2.8030628650    0.0081046633
 H    3.8801724167    2.8640644931   -0.0127934992
 H    5.5982991476    0.6961040449   -0.0427365429