15

 C    0.0433125701   -1.2046214893   -0.0331840493
 C   -0.0331362626   -0.0012426671   -0.0115923289
 C   -0.0677600472    1.4047052566    0.0142814526
 C   -1.1135852439    2.2562916457    0.0187029342
 C   -0.4926949500    3.6292870135    0.0511546323
 C    0.8092804745    3.5807786763   -0.8286273994
 O    1.5247370150    4.4727489314    0.0890536162
 C    0.7896765754    3.5474404618    0.9568764780
 C    1.1489098867    2.3257290688    0.0448384654
 H    0.0957345039   -2.2648532733   -0.0523531040
 H   -2.1674340369    2.0187070562    0.0026974413
 H   -1.0965568682    4.5340755419    0.0614184513
 H    0.9309281594    3.7402392034   -1.9024256620
 H    0.8876614266    3.6666587282    2.0382897082
 H    2.1588879272    1.9226005559    0.0484003841