14

 C   -0.0028625115    1.4488203632    0.0080263427
 N   -0.0497536320   -0.0049592438    0.0035103157
 C   -1.2065799020   -0.6895458096    0.0099142288
 N   -2.3428683625   -0.0463951169    0.0201909631
 C   -3.5033238240   -0.7703160053    0.0262018048
 O   -4.6161469757   -0.3375515368    0.0355154807
 O   -3.4113440302   -2.2029061666    0.0213545098
 N   -2.2172455992   -2.8612035567    0.0106579991
 C   -1.1543838639   -2.1420646313    0.0050427822
 H    1.0414811145    1.7631270447   -0.0011168771
 H   -0.5147798616    1.8538802045   -0.8694644915
 H   -0.4975465135    1.8481949753    0.8979702940
 H    0.8131869476   -0.5208655939   -0.0036479032
 H   -0.2160974560   -2.6886295867   -0.0034890392