18

 C   -0.1342469360    1.5162472985   -0.1233359954
 C   -0.2992751207    0.0251299661   -0.3964465379
 N   -1.3593949640   -0.5463881540    0.4526757822
 C   -1.5759631224   -1.9317647050    0.2806277965
 C   -2.7549037365   -2.4620700342   -0.1699138263
 O   -3.9203076311   -1.8862140862   -0.5263622807
 N   -2.5829935059   -3.8184331294   -0.2112847510
 C   -1.2961958919   -4.0592517385    0.2206199823
 N   -0.6700950143   -2.9509950709    0.5204013893
 H    0.6321556482    1.9469113466   -0.7744482377
 H   -1.0744745121    2.0506348848   -0.2909001720
 H    0.1744265187    1.6954962163    0.9133968395
 H   -0.5928491637   -0.1384747448   -1.4397877701
 H    0.6590334621   -0.4960358006   -0.2525532651
 H   -1.1444948301   -0.3405141433    1.4250674694
 H   -3.7831935455   -0.9385243583   -0.3812678389
 H   -3.2746249496   -4.4917502155   -0.4946518837
 H   -0.8984126353   -5.0602563316    0.2870369998