21

 O    0.1776994574    1.4487691864    0.0070198655
 C    0.1008628723    0.0456072361    0.0011073809
 C    1.1351659023   -0.7357700603   -0.7709399464
 C    1.1464883793   -0.7428258660    0.7503928682
 C   -1.3112460686   -0.4728765799    0.0091652420
 C   -2.5012862932    0.0139079777    0.7913804380
 C   -2.6469781928    1.5439086095    0.8085124619
 C   -2.6579201612    1.5505698763   -0.7537767068
 C   -2.5123584358    0.0204693573   -0.7516911381
 H    1.1048310346    1.7041766269    0.0014622126
 H    0.8308640169   -1.6355165986   -1.2953189730
 H    1.9137533299   -0.1732906349   -1.2780243623
 H    1.9325748398   -0.1850166067    1.2510281762
 H    0.8499849357   -1.6474242159    1.2708785757
 H   -1.2891803113   -1.5622699514    0.0043588545
 H   -3.0202245703   -0.6555550924    1.4692692277
 H   -3.6104610445    1.8521922722    1.2218279343
 H   -1.8506509301    2.1036392180    1.2996953759
 H   -3.6270128183    1.8624807048   -1.1509315517
 H   -1.8684066036    2.1143769591   -1.2512790855
 H   -3.0410440686   -0.6432017383   -1.4277395397