20

 C    0.0929252409    1.5920601738    0.0877217742
 C   -0.1169124319    0.0740606809    0.0358419822
 C    0.5905842018   -0.5598522903   -1.1516625725
 N    2.0979142016   -0.6054422266   -1.1305382818
 C    2.4477761945   -1.9371892524   -0.5080834482
 C    1.1751904179   -2.6967003612   -0.1363019203
 C    0.5758528218   -2.0714602574   -1.4235350014
 O   -0.5217893096   -2.6015997863   -2.0699559946
 C    2.0785411127   -1.8525778982   -1.9375973193
 H    1.1590844775    1.8329272898    0.1342120270
 H   -0.3192075208    2.0781270134   -0.8033732510
 H   -0.3951820866    2.0304163171    0.9633659154
 H    0.2385964746   -0.3734282930    0.9700828916
 H   -1.1874336161   -0.1576704864   -0.0376110810
 H    0.3169196314   -0.0320616685   -2.0731647710
 H    3.4281305405   -2.0090536659   -0.0566579496
 H    1.3333109775   -3.7736152148   -0.2611078914
 H    0.6774450559   -2.5060682885    0.8189481637
 H   -0.4595540692   -3.5624905476   -2.0615211284
 H    2.6149387454   -1.9929046977   -2.8670584436