17

 N    0.0601415732    1.3306477185   -0.2189637463
 C   -0.0537832893   -0.0165874689   -0.0415380184
 N   -1.1401490482   -0.6998781131    0.0334058690
 C   -0.7061687580   -2.0726613752    0.0480972388
 C    0.0532863452   -2.6255659416   -1.1297297494
 C    0.8148341694   -2.0442364398    0.0271322078
 C    0.8746952908   -2.9166083776    1.2869749026
 C   -0.6984022107   -3.0104506763    1.2711953282
 O    1.1672942347   -0.6751936861   -0.0221495087
 H    0.9142150976    1.7436057864    0.1228608345
 H   -0.7813331101    1.8477956998   -0.0182846503
 H    0.0948242505   -3.6984771371   -1.2969599096
 H    0.0284063199   -2.0218579915   -2.0291685422
 H    1.4426092461   -3.8485691024    1.2054776639
 H    1.2425141710   -2.3539242789    2.1468087459
 H   -1.1570921669   -2.5526844679    2.1486315004
 H   -1.1316889952   -4.0033742381    1.1190386238