23

 C    0.0494668858    1.5188571154    0.2550827793
 C    0.0123622589    0.0024641915   -0.0162797024
 C    0.6245673893   -0.7353442298    1.1941853523
 C   -1.4613064221   -0.4179670167   -0.1920275889
 C    0.7929740147   -0.4160361021   -1.2791603102
 O    0.5293121126   -1.7397530274   -1.6978845692
 C    1.0315367699    0.4946601495   -2.4573759196
 C    2.1974931130    0.0246773265   -1.6078531466
 O    2.8805026370    0.9057512055   -0.7622814613
 H    1.0695872581    1.8926360669    0.3452641696
 H   -0.4597802942    2.0781334494   -0.5364464344
 H   -0.4812169498    1.7295746811    1.1898135688
 H    0.0592550079   -0.5162093418    2.1059779364
 H    0.6014078605   -1.8236094688    1.0612355203
 H    1.6629104852   -0.4297124832    1.3526057784
 H   -1.9120612927    0.0907187087   -1.0508140689
 H   -1.5559842545   -1.4928495456   -0.3574460456
 H   -2.0374351498   -0.1492238440    0.6998064777
 H    0.9383477367   -2.3363591872   -1.0611108505
 H    0.9144928118    0.0675021808   -3.4467569700
 H    0.7417702307    1.5340951720   -2.3589316419
 H    2.8196653570   -0.7580933292   -2.0422459128
 H    3.3696728338    1.5273369784   -1.3119132803