20

 C   -0.0065136458    1.6377949955    0.7852082038
 C   -0.0863811578    0.3136967313    0.0194658400
 C    0.6561222206   -0.8183187844    0.7399105251
 N   -1.4830105808   -0.0486936699   -0.2211051158
 C   -1.9723562403   -0.3599280407   -1.4509248583
 O   -1.3048041886   -0.3548244580   -2.4717180997
 C   -3.4523148509   -0.7421151411   -1.4876705413
 C   -3.6384707958   -2.0872204973   -2.1738679552
 O   -4.3945737074   -2.9376249806   -1.7841930344
 H    1.0366802153    1.9319665173    0.9337384999
 H   -0.5159656114    2.4373354953    0.2404836709
 H   -0.4687035251    1.5500209550    1.7761920721
 H    0.3419215549    0.4419280954   -0.9778758221
 H    0.2225635892   -1.0075255903    1.7290373617
 H    0.6057062953   -1.7444520428    0.1612654347
 H    1.7096759073   -0.5579300888    0.8814490564
 H   -2.0985830835   -0.1134619408    0.5743777020
 H   -3.9450466053   -0.7621584437   -0.5126360324
 H   -3.9502221455    0.0079645977   -2.1164364903
 H   -3.0115762542   -2.2168143992   -3.0791419370