15

 C   -0.0386535577    1.4844732361    0.0226462539
 C   -0.0010325921    0.0305974374   -0.0004712413
 C    0.0383155988   -1.1716583184   -0.0276897292
 C    0.0392347567   -2.6475768494   -0.0406290849
 O   -1.2949716982   -3.1592707186   -0.1378578606
 C    0.7658258750   -3.1427841519   -1.2226771185
 C    1.3737207504   -3.5368086660   -2.1785439013
 C    0.6925267803   -3.1466736075    1.1898089922
 C    1.1827190341   -3.5535319219    2.2076396880
 H    0.6598685838    1.9060439472   -0.7080252316
 H   -1.0396755661    1.8565878239   -0.2205486340
 H    0.2333214652    1.8728944842    1.0098719966
 H   -1.7787297233   -2.8065337354    0.6192810738
 H    1.9082147265   -3.8879639002   -3.0266083648
 H    1.6262245966   -3.9162990693    3.1021172816