23

 C    0.1295264329    1.6301395408   -0.0343802456
 C    0.0618192494    0.1116015069    0.0416615151
 C    0.9256346429   -0.7399371864   -0.9413929184
 C    1.3344940379   -1.6769853575    0.2367891684
 O    0.8550412991   -2.9930688823    0.1912664067
 C    2.7344229323   -1.4070606367    0.8265199711
 C    2.1305291345   -0.2215561472    1.6403896845
 C    0.6819224251   -0.6623116430    1.2423682638
 C   -0.2291102626   -1.0881920970    2.3721439992
 H    1.1605240767    1.9975587339   -0.0013848062
 H   -0.3139747093    1.9920505428   -0.9688390664
 H   -0.4173131284    2.0967882522    0.7929553916
 H   -0.9856829107   -0.1997747947   -0.0471642991
 H    0.3656666413   -1.2413316047   -1.7347702583
 H    1.7638369691   -0.1974655175   -1.3916076761
 H    1.2715052514   -3.4426336096   -0.5526031864
 H    3.0439578470   -2.2317951933    1.4743812928
 H    3.5449656382   -1.1802808455    0.1266055089
 H    2.3270626052   -0.2600064890    2.7142890411
 H    2.4243802061    0.7671352140    1.2811984464
 H   -0.5699561487   -0.2199461939    2.9501476621
 H   -1.1139594899   -1.6081565291    1.9907527237
 H    0.2807041105   -1.7669823133    3.0646368908