22

 C   -0.1550836491    1.5420946421    0.1252485011
 C    0.0671038923    0.0385901785    0.0527529880
 C    1.1780954379   -0.5854255059   -0.8228836108
 C    2.2442456406   -0.1057895108    0.2679737850
 C    1.0326717185   -0.7048166524    1.0543566760
 C    0.3841970699   -1.6848464499    2.0623743553
 N   -0.0629186710   -2.4692283482    0.8475983735
 C   -0.1158459044   -3.9105047223    0.9501374100
 C    1.0710923471   -1.8718376935    0.0846971626
 H    0.7608972680    2.1236595081    0.2567836370
 H   -0.6394747158    1.8970881083   -0.7918151613
 H   -0.8236529492    1.7883541008    0.9579143970
 H   -0.8901735957   -0.4740898403   -0.0529935899
 H    1.3011450347   -0.4972992186   -1.9078197650
 H    3.1753739579   -0.6760054167    0.3142093037
 H    2.4423952051    0.9652171211    0.3244853731
 H    1.1147693068   -2.2390121293    2.6719301992
 H   -0.4306828355   -1.3200285634    2.6964459750
 H   -0.8924227018   -4.2059600120    1.6637921191
 H   -0.3754839397   -4.3380968686   -0.0240046507
 H    0.8392194575   -4.3631363796    1.2805368436
 H    1.9657879762   -2.5107143173    0.1006267686