14

 O    0.0173114665    1.3156863533    0.0077434461
 C   -0.0407497022   -0.0027862599    0.0014080437
 C   -1.2621717101   -0.6264984322    0.0051569252
 C   -1.5025577202   -2.0121362936   -0.0009374192
 C   -0.5922833845   -3.0391923513   -0.0110994325
 C    0.8216916702   -2.9353646448   -0.0174753422
 N    1.6492526222   -1.9249342680   -0.0170772451
 C    1.3447077225   -0.5956990024   -0.0098867192
 O    2.2350923037    0.2596113743   -0.0118240730
 H    1.0006843052    1.4790486524    0.0021073640
 H   -2.1232917511    0.0344745382    0.0133797923
 H   -2.5518681618   -2.2972619045    0.0030944793
 H   -0.9804983680   -4.0527878558   -0.0142899843
 H    1.3321755376   -3.9022915654   -0.0240690750