18

 C    0.0307297082    1.4138668367    0.0315651277
 C    1.3457394718    0.6977541039   -0.0548741544
 C    1.7475027704    0.1109261764    1.3129806943
 C    0.3996119448   -0.6896931650    1.3644107345
 C    0.0270367305   -0.0956358748   -0.0099499096
 C   -0.0792944615   -0.7519929530   -1.3376003328
 C    0.9634638766   -0.4264157748   -2.1165903939
 C    1.9929062972    0.4576457895   -1.4124694654
 H   -0.2369846093    1.9228368934    0.9550380955
 H   -0.3134387310    1.9082454261   -0.8701370205
 H    2.6166390017   -0.5482825227    1.2462428213
 H    1.9257906404    0.8351563360    2.1152839050
 H    0.5543871289   -1.7700708280    1.3340162992
 H   -0.2827225795   -0.4592715837    2.1889852974
 H   -0.9051163706   -1.3844457801   -1.6468739942
 H    1.0713221728   -0.7181507849   -3.1572670666
 H    2.1921956535    1.3786543225   -1.9756894071
 H    2.9597724351   -0.0557423573   -1.3172849903