19

 C   -0.0309714783    1.5883122249   -0.0140347283
 C    1.4922154049    1.9464696316    0.0005936392
 C    2.1799575975    0.5846700612   -0.2022883512
 C    2.0374941598   -0.3439370444    1.0245727832
 C    2.2946299619   -1.7191644523    0.4139001080
 O    1.5906338554   -1.6358489827   -0.8422946620
 C    1.1561115019   -0.2892518408   -0.9623947994
 C    0.0199684690    0.0612218841    0.0260351262
 O    0.6202429563   -0.2968628526    1.2978122102
 H   -0.5700265234    1.9846866210    0.8487195120
 H   -0.5265879060    1.9506683106   -0.9216495274
 H    1.7535615854    2.6394013426   -0.8037165477
 H    1.7942026663    2.4154559658    0.9411133655
 H    3.1854138898    0.6130774988   -0.6232341090
 H    2.5953748386   -0.0994300554    1.9293649833
 H    3.3593282436   -1.9293022801    0.2370932817
 H    1.8625328995   -2.5157109836    1.0270754891
 H    0.9562556718   -0.0633501009   -2.0100876592
 H   -0.9231371340   -0.4739184276   -0.0894738643