14

 N    0.0651154576    1.4641628913   -0.0505025937
 C    0.0092526055    0.0442654138   -0.0125691840
 C   -1.1321844720   -0.6926635618   -0.1015264098
 O   -2.3481318759   -0.1541777524   -0.2045514905
 O   -1.1363495038   -2.0216101463   -0.1428696465
 C    0.0759686189   -2.7554660554    0.0036370883
 N   -0.0934240472   -4.0072957349    0.0504493118
 N    1.2515476665   -2.0418887079    0.0590839785
 C    1.1976205505   -0.7424237810    0.0373574689
 H   -0.7848501017    1.8512526603   -0.4439852456
 H    0.1805874067    1.8658685473    0.8751362708
 H   -2.9898322317   -0.8741302297   -0.2826033850
 H    0.8213290076   -4.4460637507    0.1381117968
 H    2.1463097091   -0.2055211429    0.0624477699