18

 N    0.0042298105    1.1880244775    0.7134841820
 C    0.0567494715    0.0638300858    0.1316928624
 O    1.2649231856   -0.5546656753   -0.1277002460
 C    1.5805597921   -0.9069043610   -1.4672216317
 O    0.9560617653   -2.0607734943   -1.9270590675
 C   -0.3602061585   -1.8705251772   -2.4220343938
 C   -1.3991674166   -1.6147078466   -1.3517833263
 C   -1.2674186072   -2.1887071840    0.0227634894
 C   -1.1903873575   -0.6797555311   -0.1710672406
 H    0.9524995077    1.5351308234    0.8715377924
 H    1.3614960245   -0.0542373105   -2.1298122182
 H    2.6518088253   -1.1137860313   -1.4512485579
 H   -0.3657429837   -1.0502995420   -3.1580251188
 H   -0.6081683877   -2.7949778124   -2.9539928786
 H   -2.4031985810   -1.5690217862   -1.7669802048
 H   -2.1422514194   -2.5871704470    0.5230094444
 H   -0.3331899590   -2.6871321573    0.2527483539
 H   -2.0584294921   -0.1066244404    0.1302942097