16

 O    0.1767351422    1.3517402651    0.2387824035
 C    0.0826316695   -0.0159467520   -0.0534674968
 C   -1.3407648178   -0.4857355850   -0.0504465724
 N   -2.3267648170    0.2723427016    0.2081183781
 C   -3.5418174505   -0.5682806077    0.1140472417
 C   -2.9838140889   -1.9866939928   -0.2453651099
 O   -1.5554475254   -1.7877341638   -0.3383858416
 C   -4.3245373570   -0.5543414553    1.3454592966
 C   -4.9771601422   -0.5752894544    2.3536692542
 H   -0.7236076164    1.6513661133    0.4301108448
 H    0.5191872127   -0.2358695064   -1.0395022280
 H    0.6429085204   -0.6214295285    0.6766042235
 H   -4.1657379216   -0.1818423438   -0.7008754173
 H   -3.1832808156   -2.7267890973    0.5316239052
 H   -3.3438510788   -2.3552181871   -1.2082283112
 H   -5.5517879337   -0.5792568057    3.2469505096