21

 C   -0.3784976853    1.5630040641   -0.3407624490
 C    0.0432611666    0.1204737190   -0.0289725422
 C    0.8588488279   -0.5197422239   -1.1313244124
 C    0.1654189797   -1.1104938680   -2.3611575368
 C    0.9080031121   -1.9951366721   -1.3937068267
 O    2.2069181633   -2.4148694593   -1.7304666120
 C    2.9623491754   -1.2576606220   -2.0671591891
 C    2.2876600682   -0.0436503965   -1.3751777910
 O    2.4372760081    1.1630350244   -2.1049250414
 H    0.4935397788    2.1913640707   -0.5409079102
 H   -1.0218041576    1.5982372689   -1.2268641718
 H   -0.9351880684    1.9983515039    0.4947195548
 H    0.6276900298    0.1009569616    0.9008296614
 H   -0.8492157529   -0.4895573687    0.1597042800
 H   -0.9190067710   -1.1424701811   -2.3369430183
 H    0.5796556108   -0.9614302738   -3.3538672328
 H    0.3837798765   -2.7313198291   -0.7949401624
 H    3.9953412375   -1.4190289919   -1.7483727037
 H    2.9697534504   -1.0871323688   -3.1547119013
 H    2.7595523781    0.1574580807   -0.4070145628
 H    1.8713508321    1.1033976019   -2.8830943923