18

 N   -0.0082816087   -1.1598317215    0.0312997256
 C   -0.0371354758   -0.0047492154    0.0131260271
 C   -0.0423037586    1.4591276531   -0.0097860314
 C    1.3620762064    2.0336633556   -0.0109430378
 C    2.3020263444    1.8773782419    1.2192222934
 C    2.9537142419    3.1750585308    0.7484905488
 C    2.9623583941    3.1508433325   -0.7880225731
 C    2.3157453281    1.8388790314   -1.2249492044
 C    1.7276518776    3.5802786572   -0.0332653933
 H   -0.5924602020    1.7906646552   -0.8987579772
 H   -0.6022812555    1.8181905853    0.8621972584
 H    1.7610526316    2.0240415159    2.1591685872
 H    2.9030685491    0.9634732563    1.2778851569
 H    3.6255213428    3.8210445655    1.2981953761
 H    3.6404228641    3.7793066692   -1.3502153987
 H    2.9172316418    0.9236779980   -1.2480557809
 H    1.7853828149    1.9557818855   -2.1750609732
 H    1.1358748939    4.4839584535   -0.0508375533