22

 C    0.0115622869    1.5031694122    0.1166482481
 C   -0.0536549780   -0.0030194838   -0.1596703761
 N    0.6936772242   -0.4262733589   -1.3241038473
 C    0.2497399347   -0.8649273524   -2.5454667942
 O   -0.8557498911   -0.9325625741   -3.0214691848
 C    1.6825062892   -1.2248092676   -2.9857191690
 C    2.1242516817   -0.7583039174   -1.5595609783
 C    3.0563467879    0.4532350132   -1.5408341672
 C    2.6354489165   -1.8791047001   -0.6542452299
 H    1.0343730467    1.8306098633    0.3247882246
 H   -0.3592801367    2.0679332646   -0.7433690028
 H   -0.6054650943    1.7547103452    0.9852979760
 H    0.2952278579   -0.5639439626    0.7172690112
 H   -1.0904520466   -0.3037648807   -0.3435479290
 H    1.8336494238   -2.2849117414   -3.1994603593
 H    2.0667804570   -0.6255226968   -3.8136567993
 H    2.6609161436    1.2601213057   -2.1642531826
 H    3.1887648683    0.8386022683   -0.5241816645
 H    4.0460038647    0.1773905313   -1.9201737258
 H    3.6356568074   -2.1969063432   -0.9657578904
 H    2.7056472782   -1.5456139313    0.3870187270
 H    1.9711596179   -2.7476194335   -0.6907462163