17

 C    0.1022311366    1.4566072445    0.0222736110
 C   -0.0730202176   -0.0182104435   -0.0017513508
 C   -1.1708720176   -0.8281419150   -0.1308503950
 C   -0.6802947787   -2.1668052895   -0.0773328102
 C    0.6695700131   -2.0604791906    0.0792367143
 O    1.0758043542   -0.7723773364    0.1294401840
 C    1.3242190365   -3.3490300942    0.1518196439
 C    0.3507822894   -4.2804211880    0.0367971199
 C   -1.0197793536   -3.6286021559   -0.1202079888
 H    0.7528841728    1.8015247535   -0.7901614218
 H   -0.8688445477    1.9444059428   -0.0891919587
 H    0.5493206804    1.7971526733    0.9638195472
 H   -2.1859243037   -0.4794786187   -0.2475806157
 H    2.3838974710   -3.5251807982    0.2741191854
 H    0.4915670704   -5.3527433957    0.0504478175
 H   -1.6992391947   -3.9398279925    0.6842792953
 H   -1.4977284409   -3.9356692660   -1.0598615575