16

 O    0.0304026294    0.0107780294   -0.0386939661
 C   -0.0111809671    1.1980857667    0.0480034340
 C   -1.1065831664    2.2921656542    0.0399329246
 C   -0.7428083897    3.0522816769    1.3135394815
 C   -0.0192300034    4.3061959462    0.9745914686
 C   -0.1059002377    4.5333686226   -0.5160219992
 C   -0.1114137555    3.0630630513   -0.9185584859
 C    0.9883708064    2.3713714792   -0.0342464650
 N    0.7698266371    3.0766183943    1.2626516567
 H   -2.1495685972    2.0967841710   -0.1948587288
 H   -1.2087756436    2.8493831876    2.2695263413
 H    0.0979686149    5.1122459585    1.6889153663
 H   -1.0202178146    5.0598070854   -0.8069781433
 H    0.7576333397    5.0730508750   -0.9174211071
 H   -0.1477955117    2.7929026062   -1.9709147260
 H    2.0323551795    2.2660246256   -0.3174769017