18

 C    0.8643523114    1.4301070609   -0.0091201878
 C    0.0821009939    0.1197348948    0.0110038156
 C    0.6164186920   -0.9770824427   -0.9553338823
 C    1.3000956745   -1.7166375270    0.2454116435
 C    2.7203227668   -1.4721190164    0.3937349703
 C    3.8865190134   -1.2275492343    0.5717391819
 C    0.4218924118   -0.8269025697    1.2091878864
 O    0.9994881612   -0.3130024064    2.3708351035
 H    1.9452730757    1.2594171121    0.0232031322
 H    0.6472269183    1.9925046732   -0.9231875516
 H    0.5968267162    2.0543140326    0.8488455149
 H   -0.9865358670    0.3329229672   -0.0877094307
 H   -0.1746352604   -1.5856917153   -1.3987403123
 H    1.2894947203   -0.6413739175   -1.7462974808
 H    1.1023138006   -2.7904110144    0.3093826115
 H    4.9247627545   -1.0430178335    0.6986864640
 H   -0.4623628618   -1.3887438177    1.5233880090
 H    1.9229336885   -0.1071191059    2.1752426029