18

 C   -0.0205638668    1.4684861945    0.0140328761
 C    0.0023463756   -0.0352173390    0.0004059862
 C    0.6288447994   -0.9628145166   -1.0870645017
 C    0.0310338303   -1.9331906284   -0.0168302871
 C    0.6448522964   -0.9820456885    1.0613465858
 C   -1.2240361630   -1.0007720495    0.0009832868
 C    0.0527781153   -3.3673481271   -0.0298459555
 C    0.0710444572   -4.5704897699   -0.0407691438
 H    0.9954691545    1.8783159327    0.0090842574
 H   -0.5451086082    1.8626771045   -0.8633139147
 H   -0.5300802382    1.8469951645    0.9070143646
 H    0.1452140657   -0.9712321527   -2.0678398008
 H    1.7188968538   -0.9555813377   -1.1750437723
 H    1.7360594719   -0.9762524092    1.1330471017
 H    0.1761660791   -1.0080079885    2.0490680704
 H   -1.8311693567   -1.0282714116    0.9101647546
 H   -1.8450419641   -1.0119888194   -0.8990962544
 H    0.0871910878   -5.6319129182   -0.0504278334