25

 C   -2.1012297739   -1.2270699106    0.2984095919
 C   -0.8678489404   -0.3020693106    0.2355357001
 C   -1.3616098761    1.1519831589    0.1297783876
 C    0.1561288437   -0.5192332890    1.3858470209
 C    1.1682374598    0.6215712346    1.4894903648
 C   -0.4630845363   -0.9921539450    2.7289039539
 O   -0.0882096300   -2.3614474399    2.4729188083
 C    0.8136290487   -1.9406474459    1.4212459814
 C    0.8674526228   -2.8833730138    0.2355951365
 H   -2.8436217216   -0.8351975394    1.0024991803
 H   -2.5864278824   -1.2730625426   -0.6818131851
 H   -1.8619491286   -2.2425751110    0.6158652217
 H   -0.3255293407   -0.5262999178   -0.6941009561
 H   -1.8241455782    1.4822607919    1.0679474938
 H   -0.5620839646    1.8542071265   -0.1177188928
 H   -2.1236527110    1.2307264644   -0.6525759435
 H    0.6983957355    1.5630984684    1.7878563007
 H    1.9364720327    0.3883944462    2.2334575988
 H    1.6742464700    0.7932998079    0.5318345977
 H    0.0542751446   -0.5897675284    3.6118556691
 H   -1.5423886287   -0.8841981407    2.8715747848
 H    1.8334310692   -1.8571634968    1.8326705063
 H   -0.0908997259   -2.9927713206   -0.2737202256
 H    1.6089371122   -2.5306767222   -0.4897603651
 H    1.1843843793   -3.8738425746    0.5788750497