15

 N    0.0012083689    1.3326482426   -0.0008411907
 C   -0.0282178031   -0.0398679922   -0.1908699498
 O    0.8148460829   -0.6404543789   -0.8301035770
 N   -1.0882968757   -0.6667428198    0.4349533163
 C   -1.1488240280   -2.1170257902    0.4555535865
 C   -2.4828406732   -2.6373485626    0.1829089413
 C   -3.5845969173   -3.0908466818   -0.0161139957
 C   -4.9093117517   -3.5918503294   -0.2747808297
 O   -5.2436042999   -4.7471436593   -0.1467149773
 H    0.6447387807    1.7951447012   -0.6249603851
 H   -0.8782104918    1.8135875500    0.1148380940
 H   -1.5970125810   -0.1692963009    1.1478153819
 H   -0.4416520155   -2.4582971580   -0.3090452722
 H   -0.7931347041   -2.5279767738    1.4119316019
 H   -5.6267203312   -2.8155400570   -0.6113625542