18

 C    0.1750844401    1.5052896367   -0.0529130924
 C    0.1052379491   -0.0022545234   -0.0193748601
 N   -0.7917764885   -0.6675816048    0.9669721591
 C    0.6587936192   -0.7741330252    1.1378817517
 C    1.2403018706   -2.1592182243    0.9554743263
 C    0.9031420968   -2.7854634585   -0.3656850666
 C    0.3763721864   -2.1237354611   -1.4016127237
 C    0.0858125552   -0.6777872693   -1.3695468564
 O   -0.1333754718   -0.0421706035   -2.3841853963
 H    1.0735728855    1.8453828879   -0.5763102857
 H   -0.6852476605    1.9155504295   -0.5885073931
 H    0.1912415445    1.9148147987    0.9624074405
 H   -1.1659497080    0.0441665759    1.5910177823
 H    1.1156556925   -0.1813635301    1.9282873484
 H    2.3343646183   -2.1223284370    1.0612433764
 H    0.8883942160   -2.8101937157    1.7676128387
 H    1.1355687219   -3.8432014840   -0.4690014377
 H    0.1905243226   -2.6112890119   -2.3532114814