17

 O    0.2635314827    1.1678168127   -0.4114173186
 C    0.0557947732   -0.1377347482    0.0911398235
 C    0.4004267799   -0.1208277075    1.5981363369
 O   -0.5038742904   -0.9994489252    2.2581489294
 C   -1.6618309291   -1.1004788999    1.4832169514
 C   -2.3368481649    0.1411672572    0.9905955625
 C   -1.3952165505   -0.6340137183    0.0611774991
 C   -1.8818317928   -1.2896113946   -1.1099763228
 C   -2.2711599959   -1.8264541622   -2.1149934928
 H    0.0654185391    1.1570096274   -1.3537458234
 H    0.6765900895   -0.8651195095   -0.4488062292
 H    1.4156105690   -0.4618832592    1.8125990527
 H    0.2966011367    0.9108871364    1.9590735054
 H   -2.2328889420   -1.9935664496    1.7056013444
 H   -3.3945057865    0.0720246091    0.7651938906
 H   -2.0020134855    1.1127262190    1.3359565437
 H   -2.6214785324   -2.3097453076   -2.9929204230