18

 N   -0.1666081268   -1.1969646526    0.0520900048
 C   -0.1142987646   -0.0414434227    0.0247169232
 C   -0.0638161570    1.4167854662   -0.0016473721
 C   -0.1552685346    2.0212821791    1.4599634770
 C    1.4144489144    2.1286430494    1.4854810555
 C    1.3381000192    2.0118994221   -0.0169295792
 C    1.6381848127    2.5946058898   -1.1701164573
 C    0.5185094565    2.3515379277   -2.1779718254
 C   -0.7117368829    2.0221484781   -1.2738388475
 H   -0.6325210728    3.0029280122    1.4378149117
 H   -0.6218588198    1.3923726549    2.2195926952
 H    1.8627524287    3.0334265697    1.8999918208
 H    1.8589008797    1.2538327523    1.9702415372
 H    2.4939165259    3.2272613692   -1.3747588058
 H    0.3359114394    3.2300036830   -2.8050102786
 H    0.7493084870    1.5231076149   -2.8609271918
 H   -1.4367022107    1.3607544527   -1.7531787267
 H   -1.2251280845    2.9501079840   -1.0029659110