18

 O    0.5966442126    1.1099474833   -0.1400536440
 C    0.0013202075   -0.1525297129    0.0149199890
 C   -0.0668610268   -0.8612728970    1.3995473808
 N   -1.5457680455   -1.1098296721    1.2552472020
 C   -2.1498724167    0.2298635613    1.2044688669
 C   -1.5202761917   -0.2885744703   -0.0316587626
 C   -2.2979122482   -0.6515647937   -1.2502118536
 C   -2.8525073558   -1.9993273158   -1.4466516150
 O   -3.6914236995   -0.8979097810   -1.0793821042
 H    0.1239484077    1.7367740112    0.4178885800
 H    0.4798737009   -0.7938690134   -0.7298346830
 H    0.4838836450   -1.8018315719    1.4528929490
 H    0.1891183239   -0.2418723148    2.2662602739
 H   -3.2341474926    0.2084431945    1.2180754394
 H   -1.6960909420    1.0353081541    1.7821410814
 H   -2.0458743566   -0.0586227148   -2.1318983604
 H   -3.0026889909   -2.3827884465   -2.4546062701
 H   -2.6997429114   -2.7390361001   -0.6644944096