18

 C   -0.1148950467    1.5299225064    0.0035305117
 C    0.0018456507    0.0021045356    0.0278872571
 C    0.6889365689   -0.5613811803   -1.2090549201
 C    0.8251902213   -2.0746215436   -1.4109572966
 C   -0.4731306358   -2.4903145220   -2.1277160819
 O   -1.3067229969   -1.3373159533   -2.2457781869
 C   -0.0889499210   -0.6017575259   -2.5623219142
 C    0.6578094910   -1.9395350413   -2.9223794198
 H    0.8708284347    2.0052617375   -0.0588219354
 H   -0.7010028578    1.8693009390   -0.8575060408
 H   -0.6081770605    1.9053657866    0.9051981687
 H    0.5636615367   -0.3106821326    0.9178038285
 H   -0.9926272515   -0.4484960810    0.1081330349
 H    1.6623105932   -0.0856248845   -1.3784496563
 H    1.4411125651   -2.7789733267   -0.8656657619
 H   -0.9301589255   -3.4694386924   -2.0768320751
 H   -0.2630747718    0.2729100439   -3.1854676365
 H    1.2324523459   -2.2904627854   -3.7675500555