20

 C   -0.1836470888    1.5875953373    0.0053491445
 C    0.0839570070    0.0727434981    0.0463580424
 C    0.7373060796   -0.4544129109   -1.1987255780
 C    2.0601777458   -0.7777709589   -1.4169546757
 C    3.5193351399   -1.0333786334   -1.0676134219
 C    3.6471546914   -1.5230134245   -2.5629100700
 N    2.2222469883   -1.1902192571   -2.7043568699
 C    1.0376125537   -1.1691955215   -3.3830792356
 C    0.1059750768   -0.7038679308   -2.4668118595
 H    0.7506058142    2.1452187411   -0.1157335606
 H   -0.8329539855    1.8471089491   -0.8368465998
 H   -0.6690086225    1.9294306418    0.9259463063
 H    0.7143230633   -0.1574024795    0.9135312888
 H   -0.8655777491   -0.4511654974    0.2146289317
 H    4.1253966503   -0.1556728283   -0.8262353106
 H    3.7114463363   -1.8106036473   -0.3226877488
 H    4.3092154204   -0.9316970899   -3.2023248748
 H    3.8696890436   -2.5869118233   -2.6877568206
 H    0.9376075531   -1.4597393015   -4.4159594948
 H   -0.9432651679   -0.5517574831   -2.6790434832