21

 C    0.1636579670    1.5406260114   -0.0955207461
 C   -0.0066836197    0.0334470793    0.0686488368
 O    0.5226742615   -0.6341881758   -1.0935617054
 C    1.2505117287   -1.7750098109   -0.6766497279
 C    2.6894309286   -1.9461209067   -1.1884335683
 C    3.3181738304   -2.8471646683   -0.0914858591
 C    2.6214157080   -2.4494697776    1.2573681967
 C    1.4706599383   -1.5992534539    0.8027888967
 C    0.7637962059   -0.5620495443    1.2318382757
 H    1.2244622570    1.8035506401   -0.1423897851
 H   -0.3184152563    1.8733769562   -1.0192072470
 H   -0.2958913842    2.0739149821    0.7433325028
 H   -1.0856392045   -0.1916499259    0.1453136362
 H    0.6741008324   -2.6910408582   -0.9032261582
 H    2.7626758194   -2.3832722210   -2.1875332512
 H    3.1684119588   -0.9611420027   -1.2083393531
 H    3.1118129086   -3.8989868812   -0.3150510490
 H    4.4047353860   -2.7435757253   -0.0430676572
 H    2.2991111471   -3.3393317335    1.8095296594
 H    3.2897350266   -1.8942859811    1.9224338564
 H    0.7512363405   -0.1268686129    2.2238124669