15

 C    0.2316068732    1.5925161568    0.0826313995
 C    1.2394933424    0.5532494722   -0.2344022015
 N   -0.1506535507    0.1706607701    0.0649308562
 C   -0.3797858167   -0.4339803770    1.3181272653
 C   -1.3055298893   -1.4133483759    1.5662869565
 N   -1.1776658698   -1.6971931983    2.9106345178
 C   -0.1982721529   -0.8909381239    3.4036245947
 N    0.3053721913   -0.1156662882    2.4715607372
 H    0.3071954771    2.0694256102    1.0552873876
 H   -0.2101916222    2.1921997186   -0.7081049179
 H    1.5483445263    0.3788967098   -1.2611802169
 H    1.9829954032    0.3413538949    0.5281978313
 H   -2.0148136935   -1.9121470538    0.9292979605
 H   -1.7112017806   -2.3750458159    3.4276947013
 H    0.1008746622   -0.9141839596    4.4410810587