13

 N    0.0169498785    1.4468059505    0.1703034145
 C    0.0250898957    0.0492298245    0.0459860045
 C   -1.0626797769   -0.8158816155    0.0096283149
 N   -0.6482011280   -2.1443533356   -0.0242534503
 C    0.7155471759   -2.1173304988   -0.0172132382
 C    1.1533508540   -0.8110205783    0.0296920552
 O    2.4845363684   -0.8141138398    0.0292377015
 N    2.8487884960   -2.2566305305   -0.0228857863
 N    1.7874464513   -2.9412417023   -0.0469882690
 H    0.7978939720    1.8795441070   -0.3063523721
 H   -0.8443604085    1.8643783238   -0.1575509014
 H   -2.1143976883   -0.5758994607    0.0147440326
 H   -1.2478202698   -2.9481247942   -0.0525050758