19

 O    0.5326622183    0.0532359893    0.8433647862
 C   -0.2429474940    0.4387255851   -0.2858240391
 C   -1.5676684905   -0.2575111084   -0.2036142480
 C   -2.7065416667    0.0039666474   -1.1839186428
 C   -3.7245654094   -0.9210336790   -0.4766992905
 C   -2.9661208970   -2.2672455820   -0.4169209602
 C   -1.7356818537   -1.7027249523    0.2821148517
 C   -2.2792140082   -0.5487703040    1.0983109666
 O   -3.6766273998   -0.4627393877    0.8840217606
 H    1.3879165020    0.4878217152    0.7832824815
 H   -0.3999243850    1.5303974595   -0.3038825153
 H    0.2697517922    0.1680425309   -1.2242625472
 H   -3.0333759809    1.0483970056   -1.1857444680
 H   -2.4908696574   -0.3121525612   -2.2092143900
 H   -4.7527075570   -0.9212969789   -0.8322687189
 H   -3.4962474307   -3.0105024932    0.1851830221
 H   -2.7632882177   -2.6797620690   -1.4094103535
 H   -0.8949236420   -2.2940767133    0.6152675861
 H   -1.9387063623   -0.2533070640    2.0790345488