15

 O   -0.0107778044    1.2816903997   -0.0881325682
 C   -0.0290950481   -0.1126206187   -0.0381928140
 C   -0.4698784400   -0.7082933399    1.2826253405
 C   -1.4114690718   -0.6621053262    0.0590262983
 C   -1.4346621224   -2.2141531345    0.0179993955
 C   -0.5003953027   -2.2423193390    1.2334213981
 O    0.5476373099   -2.8938093432    0.4302688482
 C   -0.2675287317   -2.9218849564   -0.6906291832
 O   -0.0104604995   -3.3858640792   -1.7526956058
 H    0.8165134572    1.5829217534    0.3023650524
 H    0.7312154273   -0.6067836999   -0.6418730181
 H   -0.4820132064   -0.1041862205    2.1806680083
 H   -2.2715711525   -0.0310369192   -0.1183660588
 H   -2.4103160744   -2.6934490833   -0.0076144074
 H   -0.6984978903   -2.7932412830    2.1502808543