22

 C   -0.0105625764    1.6401870164    0.0136641460
 C   -0.0106917842    0.1158066564    0.0142085665
 C   -1.4289031756   -0.4570314647    0.1046016581
 N   -2.2805703279    0.0000981675   -0.9885151586
 C   -2.4581294773   -0.9031879033   -2.1227576444
 C   -3.5580934438   -0.6830518995   -1.1452062631
 C    0.8926952987   -0.5692649360   -1.0472184176
 O    1.6431382036   -1.2652657899   -0.0323983150
 C    0.9534907564   -0.5644225524    1.0202489491
 H    1.0077666949    2.0338090115   -0.0653689643
 H   -0.6037464060    2.0253667466   -0.8194994235
 H   -0.4500393646    2.0288171641    0.9399916094
 H   -1.3780107140   -1.5604554126    0.1552680827
 H   -1.8841137463   -0.1142854255    1.0435163295
 H   -2.4843956065   -0.4365039454   -3.1032762088
 H   -1.9580126404   -1.8699449227   -2.0904601402
 H   -3.7854137102   -1.5028461728   -0.4649257377
 H   -4.4054839934   -0.0509068176   -1.3952274136
 H    0.4061715736   -1.2621683974   -1.7431048365
 H    1.5234383102    0.1225073665   -1.6218333474
 H    1.6157000179    0.1273377894    1.5586622834
 H    0.4972433314   -1.2531108685    1.7437807362