14

 C   -0.0195120499    1.5468085546   -0.0044366471
 C   -0.0046293453   -0.0048352842    0.0048978176
 C    0.7563286028   -0.5301555238    1.2510172154
 C   -1.3791604140   -0.5209998121    0.0004246181
 C   -2.5094085018   -0.9245127022    0.0313162478
 C    0.6921620382   -0.4789037081   -1.2098542978
 N    1.2635201252   -0.8330109664   -2.1494171918
 H    1.0038500165    1.9306098543   -0.0116531090
 H   -0.5453288225    1.9240609815   -0.8833570180
 H   -0.5305448947    1.9057419973    0.8921029663
 H    0.2491820007   -0.1817014991    2.1538761535
 H    0.7790523314   -1.6213527602    1.2597410869
 H    1.7826106280   -0.1541718065    1.2485477599
 H   -3.5071420646   -1.2891414251    0.0444669782