19

 C   -0.3332225783    1.4062676202    0.0205380289
 C    0.0755463662   -0.0550214691   -0.0012379008
 O    0.7885071902   -0.2727428698   -1.1943142710
 C    0.8429118269   -1.5958865065   -1.6667984361
 C    1.5832938721   -2.5958699902   -0.8011611484
 O    2.7569546124   -2.1777215131   -0.1044362133
 C    1.6335569529   -2.6037204026    0.6664456103
 C    0.9544893425   -1.6133159758    1.5913408129
 O    0.8683725856   -0.2852167203    1.1378649532
 H    0.5644169679    2.0289235481   -0.0073051881
 H   -0.9520031006    1.6375788868   -0.8491090727
 H   -0.8903263636    1.6282748702    0.9332359444
 H   -0.8071450910   -0.7220954673    0.0254157322
 H   -0.1705540804   -1.9972977468   -1.8472054404
 H    1.3446575756   -1.5379241154   -2.6389970597
 H    1.6793910524   -3.5649038308   -1.3010905979
 H    1.7632774196   -3.5780037664    1.1482483036
 H   -0.0444114747   -2.0170064231    1.8363399702
 H    1.5215755544   -1.5655722482    2.5275095529