18

 C    0.0048801800    1.6021867496    0.1681574813
 C    1.2704734681    0.8462133055   -0.0987590009
 O    2.2196932211    0.9240318941    0.9395901273
 C    3.0731988167   -0.0877636388    1.2786661243
 N    3.0088525093   -1.3443838498    1.2171361787
 C    1.8312001529   -2.0714413804    0.7404262525
 C    0.5881401113   -1.7697801675    1.5523378083
 C   -0.2500252164   -0.7820110541    1.2453068223
 C   -0.0288736715    0.0922590886    0.0603523423
 H   -0.0753134105    2.0255550903    1.1637891866
 H   -0.4337070338    2.1991928554   -0.6229516722
 H    1.7277869127    0.8962173807   -1.0832887191
 H    3.9556638449    0.3697073661    1.7275179576
 H    1.6449393365   -1.8666775658   -0.3203256319
 H    2.0660250802   -3.1373914627    0.8169397233
 H    0.4131162642   -2.3827314156    2.4322814242
 H   -1.1320778786   -0.5963774369    1.8534661573
 H   -0.4371251272   -0.2882259087   -0.8755512418