20

 C   -0.0866455477    1.5202480711    0.0277510792
 C   -0.0058486161   -0.0004739837   -0.0461077520
 N    0.7627016862   -0.4255572888   -1.2062643031
 C    0.8836304075   -1.7954261701   -1.4320517600
 C    0.6041760789   -2.8278981871   -0.5836003840
 O    0.9318726931   -4.0248149641   -1.1756094453
 C    1.4084998360   -3.7474272905   -2.4147255505
 C    1.8220639414   -4.9052507741   -3.2511625967
 C    1.4054080053   -2.4038972293   -2.6278637412
 H    0.9137548207    1.9608591821    0.0677838771
 H   -0.6041617170    1.9310115977   -0.8473056815
 H   -0.6412527159    1.8344573850    0.9162565559
 H    0.4995587474   -0.3880486334    0.8478493033
 H   -1.0207318434   -0.4363838378   -0.0433367232
 H    0.5128535205    0.0839455176   -2.0438321713
 H    0.2096294504   -2.8901746323    0.4147217323
 H    0.9857625858   -5.5908264018   -3.4302333382
 H    2.1900148902   -4.5546880433   -4.2179376114
 H    2.6192226832   -5.4831301904   -2.7696905636
 H    1.7394985835   -1.8949410869   -3.5193478756