14

 O   -0.1166657030    1.4445751194    0.0563121296
 C    0.0072778728    0.0502282543    0.0423423857
 C    0.7940520246   -0.3956524057   -1.1889244938
 O    1.1662254126    0.4064529246   -2.0093608738
 C    0.6955456698   -0.4466304462    1.2819851028
 C    1.3285206414    0.2779490138    2.2628658737
 N    1.7741856838   -0.6729455511    3.1164331563
 N    1.4493765483   -1.9103053282    2.7020044887
 N    0.7923965991   -1.7722050691    1.5855444343
 H    0.2929105126    1.7440320948   -0.7725157981
 H   -0.9805901436   -0.4390132771   -0.0291896408
 H    0.9994837940   -1.4786565599   -1.2706905755
 H    1.4706526194    1.3332714331    2.4122414585
 H    2.2804426482   -0.5620162628    3.9806862824