17

 C   -0.1321819587    1.5528708101   -0.0083155679
 C    0.0032771729    0.0252544745    0.0055036789
 C   -1.3042026967   -0.5787696982   -0.2127549262
 C   -2.3935136971   -1.0543102124   -0.3944480207
 C    1.2051985237   -0.6493062445   -0.7876513684
 C    2.1533686622   -0.1554168123    0.3580561104
 C    0.8891242750   -0.6598953715    1.1344499246
 C    0.9811127500   -1.8464421197    0.1559757166
 O    0.9763910807   -3.0354219225    0.1486464963
 H    0.8105829157    2.0781271190    0.1483294608
 H   -0.5458551631    1.8758509070   -0.9678694228
 H   -0.8300135463    1.8664929576    0.7732671443
 H   -3.3478217328   -1.4923874878   -0.5538271924
 H    1.3722548697   -0.6265707763   -1.8623297029
 H    3.0744531300   -0.7205072781    0.5063984823
 H    2.3422449867    0.9149177319    0.3950371564
 H    0.7032098281   -0.6489618769    2.2062133708