20

 C    1.3684786650    0.1339234118   -0.3480685333
 C    0.9646459907   -1.2312963846   -0.7769054400
 N    0.0068195181   -0.3464226293   -0.1136895978
 C   -0.3186324446   -0.6739390984    1.2588122745
 C   -1.0303280448    0.4429459113    2.0529562088
 O   -2.1741465015   -0.4050851494    2.3053763372
 C   -1.6246909585   -1.4360213816    1.4832950375
 C   -2.4527942674   -2.2010618054    0.5088646194
 C   -1.8795115086   -2.8813057954    1.7469567469
 H    2.0391555776    0.2085093313    0.5065479791
 H    1.4646494242    0.9354864849   -1.0741274827
 H    0.7614968150   -1.4450417099   -1.8219028446
 H    1.3658533599   -2.0691550753   -0.2086480529
 H    0.5348020342   -1.1154942508    1.7997702119
 H   -0.5511605062    0.7672801770    2.9826343470
 H   -1.2903174520    1.3124604925    1.4389872807
 H   -3.5170652892   -1.9915634466    0.5047538387
 H   -2.0282438103   -2.4300008110   -0.4625197870
 H   -1.0615024975   -3.5850377366    1.6267021183
 H   -2.5690210541   -3.1195212645    2.5499433082