14

 O    0.0360225916    1.3344054242   -0.0707617069
 C   -0.0013425083   -0.0544228928   -0.0658237385
 C    0.0580048439   -0.7141259915    1.3670914683
 N   -1.4128347448   -0.8784886052    1.3229959256
 C   -1.4652029271   -0.5971559505   -0.1278515823
 C   -2.5126644435    0.3347832416   -0.5405791133
 N   -3.3544376077    1.0442538067   -0.8892353274
 C    0.8299404232   -1.9535643053    1.4137912904
 N    1.4206124720   -2.9478631972    1.4302615503
 H    0.9445155684    1.6295965550   -0.1875236988
 H    0.6749521574   -0.5037604805   -0.7980838105
 H    0.3931669581   -0.0330919959    2.1556046845
 H   -1.7753014573   -1.7784610344    1.6157099700
 H   -1.5234501359   -1.4881518341   -0.7663229814