21

 C    0.2487800586    1.5053819765   -0.0206908839
 C    0.1269975660   -0.0047926814   -0.1034917542
 C    0.8235204868   -0.6739354348   -1.3089963782
 C    1.2935872231   -2.0084914924   -0.7440742459
 C    2.5194665003   -1.9553312708    0.1667749811
 O    3.3120126546   -0.8140267522    0.2248154549
 C    1.1352229721   -1.9178400522    0.7589589029
 C    0.5599036678   -2.9708453288    1.6625390943
 O    0.7477638918   -0.5887471931    1.0645856594
 H    1.3002456923    1.8100900769   -0.0404754893
 H   -0.2587035175    1.9719080797   -0.8708042825
 H   -0.2054178301    1.8829163823    0.8995534860
 H   -0.9365563215   -0.2902502242   -0.0960840410
 H    0.1370657957   -0.8041466664   -2.1491487110
 H    1.6716293771   -0.0691401483   -1.6487625954
 H    1.0810655349   -2.9287202030   -1.2764680551
 H    3.0970190865   -2.8709446400    0.2664249863
 H    2.8244971874   -0.1896119376    0.7818644400
 H    0.9366938047   -3.9595688464    1.3836950519
 H    0.8373067202   -2.7839984682    2.7053332597
 H   -0.5335848307   -2.9911778957    1.5990032499