17

 C    0.0275023062    1.5288951019   -0.0204123890
 C    0.0065854675    0.0221322031   -0.0118978550
 C   -1.1722288044   -0.6706533487    0.0062085047
 C   -2.5215802819   -0.0026145319    0.0178147370
 C   -1.1751895113   -2.1284940902    0.0107836994
 O   -2.1366637070   -2.8538387294    0.0212885007
 O    0.0853784358   -2.7491549932    0.0026434485
 C    1.2235834418   -2.0430790239   -0.0136030191
 C    1.2477230917   -0.6978136217   -0.0216380177
 H    1.0467497240    1.9147689357   -0.0901634871
 H   -0.5487073499    1.9278634788   -0.8622205207
 H   -0.4271773698    1.9338087121    0.8911328146
 H   -2.7029888813    0.5531077781   -0.9105373867
 H   -3.3042664024   -0.7537479694    0.1234404960
 H   -2.6079516626    0.7149743512    0.8415762894
 H    2.0987849383   -2.6820949194   -0.0200084150
 H    2.1955645354   -0.1755972630   -0.0357383400