15

 C    0.1505545472    1.4399409620   -0.1509404111
 N    0.0408793241    0.0085894409    0.0357445973
 C    0.5467684057   -0.6153291134    1.1335027052
 N    1.0146257542    0.1006435471    2.1097339969
 O    1.4396712922   -0.6320134012    3.2537187541
 C    1.3952264808   -1.9887026697    3.2855410306
 N    1.7663972783   -2.6789833445    4.2880636400
 C    0.8909762040   -2.6464043644    2.0785156529
 N    0.4787056097   -2.0159035907    1.0467061809
 H    1.1946723238    1.7728059385   -0.2202669199
 H   -0.3774006207    1.7171157940   -1.0649716459
 H   -0.3061158911    1.9595033550    0.6960397628
 H   -0.0697477554   -0.5906453676   -0.7654104381
 H    2.0924693630   -2.0744607980    5.0451532474
 H    0.8798704143   -3.7341369881    2.0914649268