19

 C   -0.0258418665    1.5015469414    0.0337989919
 C    0.0493170180   -0.0077091164    0.0246957055
 C    0.7088656906   -0.7156962866   -1.1910644160
 C    0.4701128859   -2.1590942252   -0.7433469936
 C    0.4923994293   -2.1670473015    0.7570507134
 C    0.7445546949   -0.7284401357    1.2127616090
 C   -0.8529573261   -2.1851596366    0.0265592697
 C   -1.3081284346   -0.7593124397    0.0408267311
 O   -2.4168530330   -0.2938973764    0.0597820022
 H    0.9728153169    1.9502709632    0.0208274059
 H   -0.5773010543    1.8689065673   -0.8370749933
 H   -0.5502313432    1.8596550104    0.9250102155
 H    0.2085572194   -0.4691357049   -2.1337822869
 H    1.7735125204   -0.4749695286   -1.2871746122
 H    0.7756641176   -3.0155121648   -1.3297238605
 H    0.8151055071   -3.0295821615    1.3249815343
 H    1.8116233866   -0.4885829167    1.2797845474
 H    0.2724828096   -0.4919673252    2.1724736630
 H   -1.5260117285   -3.0299806826    0.0320836235