16

 C   -0.0316613064    1.5165978778   -0.0499631014
 C   -0.0080896856    0.0076477771    0.0123398011
 N   -0.0271538021   -0.6194639953   -1.1710073255
 C   -0.0080702494   -1.9540067063   -1.1869430735
 C    0.0306041061   -2.7471735886   -0.0421392683
 C    0.0503914191   -2.1050032177    1.1841511647
 C    0.0312288172   -0.7077206876    1.2267371233
 C    0.0531911433   -0.0404177703    2.5497064429
 O    0.0849552811   -0.6351563734    3.6039499993
 H    0.8560134841    1.9579122544    0.4153752313
 H   -0.0630283978    1.8190283244   -1.0970528847
 H   -0.9063727243    1.9324582063    0.4610358136
 H   -0.0246665601   -2.4145170907   -2.1724396304
 H    0.0444891370   -3.8281916115   -0.1192651910
 H    0.0804587536   -2.6479208766    2.1226368388
 H    0.0385864442    1.0679288079    2.5308036899