18

 C   -0.0893799710    1.5682803293   -0.0328785816
 C   -0.0572285432    0.0525758709   -0.0023934020
 C    1.1511230362   -0.6858958094   -0.6478607232
 O    2.0179053145   -0.2204793394    0.4575744614
 C    0.7637287498   -0.6599613855    1.1134965166
 C    0.8582674550   -1.9287439989    0.2405055389
 O   -0.3184152039   -2.6778982083    0.0513117755
 C   -0.1870038637   -3.9244204323   -0.4517962979
 N   -1.2138048503   -4.5981003645   -0.7358144873
 H    0.8987953569    1.9813385670    0.1799648883
 H   -0.4142791451    1.9281721377   -1.0148235627
 H   -0.7971542819    1.9551641060    0.7077421676
 H   -1.0289303956   -0.4018036594   -0.2078766697
 H    1.5524117272   -0.6296667368   -1.6603075990
 H    0.7029224697   -0.5716632246    2.1983798314
 H    1.7317618726   -2.5538693563    0.4421509464
 H    0.8589399254   -4.2431504310   -0.5574148794
 H   -0.9422002025   -5.5163529645   -1.0809126934