14

 C    0.0039153510    1.4277050121   -0.0071235601
 C    1.4252397130    1.9948320827    0.0390567682
 O    2.1661356171    1.5377785421    1.1878069899
 C    1.9979250116    0.2252523581    1.4065072216
 N    2.7202429660   -0.5073569913    2.1976731617
 O    2.1500453823   -1.7592949697    2.1308117717
 N    1.0546723929   -1.7862245979    1.2736695685
 C    0.9589991132   -0.5682188918    0.8249629376
 N    0.0723562395   -0.0329679020   -0.0807395885
 H   -0.5565930919    1.7803755835    0.8717299712
 H   -0.4924122095    1.8083720105   -0.9042935284
 H    1.9695630468    1.7138014170   -0.8702620064
 H    1.4007862690    3.0820742438    0.1217728018
 H   -0.8051554510   -0.5231307571   -0.1798926087