16

 C   -0.0766598704    1.3720434530    0.0665741807
 N   -0.1166419472   -0.0692103557   -0.0946903885
 C    0.5268987861   -0.6145684639   -1.0113367204
 C    1.4036885232   -0.1838496877   -2.2325914542
 C    2.6223659107    0.5795809592   -2.0208701789
 N    3.5958998081    1.1731985083   -1.8274918773
 C    1.5210439338   -1.6934417586   -2.4815325649
 C    2.0007100000   -2.4061766101   -1.2902637282
 N    0.5589651372   -2.0214686650   -1.3439077890
 H    0.5402384744    1.8980552720   -0.6745407881
 H   -1.0988468150    1.7616398360    0.0172462772
 H    0.3067074512    1.6061838828    1.0649689489
 H    0.7795760440    0.3099396345   -2.9831915166
 H    1.4080452637   -2.1543032712   -3.4545921429
 H    2.1415951242   -3.4785453419   -1.3683383956
 H    2.6487833760   -1.9061547816   -0.5757875923