18

 O   -0.0169375100    1.4061202813    0.1322932364
 C    0.0297687823   -0.0121381282    0.0526876759
 C   -1.4056605583   -0.5216269132    0.0174712021
 C   -1.5356864206   -2.0325338315    0.0435265979
 C   -1.5619146136   -2.5500517736    1.4803063106
 C   -2.8373667859   -2.4040218221    0.7004035038
 N   -3.2862044819   -1.2048829377    1.5123427314
 C   -2.0031094250   -1.3163869804    2.2835161311
 C   -2.1771170400   -0.2265728641    1.2882649949
 H    0.8848181422    1.7360988479    0.1812073983
 H    0.5622367845   -0.3412567307   -0.8539881480
 H    0.5498484178   -0.4471363839    0.9203931697
 H   -1.9135083742   -0.0918527782   -0.8541268235
 H   -1.1342564250   -2.6666483195   -0.7374100534
 H   -1.0429873179   -3.4276406792    1.8375821487
 H   -3.5635343681   -3.1172935981    0.3351682431
 H   -1.9734396788   -1.1964123508    3.3598837275
 H   -2.3914736076    0.7893040620    1.5949989136