18

 O   -0.0978032888    1.3782221536   -0.0165006488
 C    0.0490019697   -0.0145028910   -0.0077689747
 C    0.7758931933   -0.7124928419   -1.1876437257
 C    0.3848713599   -2.1218158285   -0.7378252744
 C   -1.1469053043   -2.0963590522   -0.6842229286
 C   -1.0731771973   -2.0390144022    0.8049900714
 C   -1.3169388046   -0.7580155493    0.0317618864
 N    0.4145946496   -2.1092178984    0.8248589019
 C    0.7855987372   -0.7173729557    1.1660801587
 H    0.7789489262    1.7735861672   -0.0537069379
 H    0.3400066977   -0.4667344086   -2.1601632798
 H    1.8535701501   -0.5158640787   -1.2051624976
 H    0.9008623705   -2.9784557091   -1.1668014800
 H   -1.8661926206   -2.5655202760   -1.3423986281
 H   -1.6895920166   -2.4643608754    1.5875370131
 H   -2.2560683072   -0.2226039024    0.0447029076
 H    1.8713814158   -0.5694014275    1.1577028258
 H    0.3854244293   -0.4516653339    2.1482695607