22

 C   -0.5659359683    1.1182137185    0.2322945238
 O   -0.2363679537   -0.2065402469   -0.1324509570
 C    0.7754340934   -0.3994255110   -1.1475643055
 C    0.2658356404    0.1152951459   -2.5022555254
 C    2.0972123308    0.2821236784   -0.7652042959
 C    0.9467141800   -1.9328230537   -1.2300398979
 C    1.6116656151   -2.6110364158   -0.0281152436
 N    0.9600822794   -2.4360916317    1.1578939528
 O    2.6161595049   -3.2883213094   -0.1421317624
 H    0.2750915321    1.6507375974    0.6954817898
 H   -0.9285745132    1.7093463732   -0.6183559806
 H   -1.3737166013    1.0439921681    0.9649714594
 H    0.1371751077    1.2014069230   -2.5022306196
 H    0.9820409297   -0.1275551930   -3.2924717103
 H   -0.6936023511   -0.3476292669   -2.7504883018
 H    2.4097937647   -0.0099975821    0.2408517997
 H    2.8844773421   -0.0164545177   -1.4631007594
 H    2.0178073685    1.3721689854   -0.8029027277
 H   -0.0465162341   -2.3710828773   -1.3800395164
 H    1.5632800757   -2.1819556760   -2.0950381908
 H    0.2604773333   -1.7121919892    1.2246859286
 H    1.4101637240   -2.7808775794    1.9904490203