16

 O    0.2125030452    1.4144625460   -0.0046968935
 C    0.0724080577    0.0066501281   -0.0460887238
 C   -1.4134387067   -0.4294901990    0.0433038734
 C   -2.1749154078    0.1578457790   -1.1342828210
 O   -2.7113512099   -0.5111762960   -1.9813869476
 C   -1.5508005362   -1.9683291928    0.0842058098
 O   -0.6725576275   -2.5785790416    1.0171104846
 C   -2.9441479315   -2.3645418068    0.3588052079
 N   -4.0161403309   -2.6712935745    0.6613432490
 H    0.1109140038    1.7037385781    0.9074190463
 H    0.4917782241   -0.3164220955   -1.0052740055
 H    0.6397857490   -0.4953426768    0.7445829193
 H   -1.8303241173    0.0039241168    0.9647151588
 H   -2.1686906642    1.2645535714   -1.1806880868
 H   -1.2729326076   -2.3658303477   -0.8964784490
 H   -1.0253469799   -2.4445985988    1.9043179282