19

 C   -0.0023317925    1.4875881431   -0.1093102120
 O    1.3469380376    1.5264387337    0.4139165438
 C    1.4194836413    0.0816833528    0.4711377811
 C    0.0141252764   -0.0223609017   -0.0726578228
 C   -0.8247352658   -0.9974680512   -0.3790536823
 C   -0.5365654073   -2.4879055270   -0.2373434357
 C   -1.8157452334   -3.1276663175   -0.7217069288
 C   -2.7250143900   -2.2289573823   -1.0929068774
 C   -2.2338593885   -0.8103262233   -0.9302453170
 H   -0.7200331001    1.9850957345    0.5592938493
 H   -0.0741643432    1.9517735862   -1.1038011718
 H    2.2213926460   -0.3180722237   -0.1666519106
 H    1.5753938210   -0.2846259727    1.4963948643
 H    0.3329851021   -2.8003462675   -0.8335530030
 H   -0.3018265757   -2.7677784404    0.7998524293
 H   -1.9489231567   -4.2032772310   -0.7520600766
 H   -3.7142896534   -2.4584030689   -1.4727569205
 H   -2.8713154419   -0.2281570742   -0.2491163531
 H   -2.2366681059   -0.2605536389   -1.8825822462