17

 C   -0.1811928297    1.5924279998   -0.1350426839
 C    0.0471930810    0.0908194613   -0.0178413284
 C    1.1184508977   -0.6523169978   -0.8663751031
 N    1.6605893495   -1.3643177305    0.3597512113
 C    2.2289063160   -0.3525015953    1.2799962366
 C    3.0299767632    0.8547372387    0.9329464632
 O    3.0813465703    1.4383854237   -0.1246357308
 C    0.7396226056   -0.5247721127    1.1993249448
 H    0.7521550979    2.1547188248   -0.0895197277
 H   -0.6660482861    1.8282012710   -1.0885782582
 H   -0.8408676619    1.9467196308    0.6650251083
 H   -0.9115305730   -0.4252705791   -0.1360503872
 H    0.7094310827   -1.3969446460   -1.5510676337
 H    1.8562185430   -0.0358096924   -1.3752184718
 H    2.6447673734   -0.8466585558    2.1571837558
 H    3.6471284595    1.2020874878    1.7932346433
 H    0.2253723712   -0.9313540181    2.0667750516