19

 O   -0.0806585343    1.3718362649   -0.2760147976
 C   -0.0231480373   -0.0341252267   -0.0964119743
 C   -1.4156248567   -0.6656048036    0.0002511339
 C   -1.3809565017   -2.1671882294    0.2766300871
 C   -2.7701155618   -2.8437462346    0.3129637978
 C   -2.9310761993   -3.3765162641   -1.1130859000
 C   -1.4985638176   -3.5182611722   -1.6171785248
 O   -1.1029139575   -4.1021753476   -2.5828579303
 O   -0.6612232215   -2.8433828565   -0.7813231802
 H   -0.3906503036    1.5433473876   -1.1706618971
 H    0.5563648559   -0.5239010452   -0.8901267017
 H    0.5180986940   -0.1921233629    0.8436216734
 H   -1.9711752507   -0.1723260431    0.8066133689
 H   -1.9700444382   -0.4795109656   -0.9305542465
 H   -0.8157866125   -2.3586433252    1.1942995946
 H   -2.7650031266   -3.6690817317    1.0301187250
 H   -3.5540338616   -2.1453802496    0.6123598307
 H   -3.4497562334   -4.3328892830   -1.1895351809
 H   -3.4513258755   -2.6720755915   -1.7710637280