17

 C   -0.5239868698    1.3657370578    0.0043390809
 C    0.0936009275   -0.0232397736   -0.0206858282
 C    1.4448659682   -0.2536765812   -0.7693985377
 C    1.9195582731   -1.1746212527    0.3945202743
 C    0.7873610569   -0.5781527950    1.2317609441
 C    0.8543357804    0.0005250037    2.5752403251
 O    0.1385962676   -1.2171609814    2.3133778768
 H    0.2025170810    2.1155157165    0.3365817990
 H   -0.8747459835    1.6587550546   -0.9910616874
 H   -1.3839017386    1.4048775990    0.6821120803
 H   -0.6451460974   -0.7592244577   -0.3603941406
 H    1.3896802768   -0.6994507511   -1.7639590864
 H    2.0328450869    0.6667078806   -0.8283566892
 H    1.7416448514   -2.2335993288    0.1849864434
 H    2.9418508691   -1.0532180596    0.7599263979
 H    1.7627433466   -0.1105116719    3.1669156821
 H    0.2337712539    0.8570159207    2.8356947453