18

 C    0.0813231421    1.5919218184    0.1776386982
 C    0.1088148027    0.0849245538    0.0177775187
 C    0.4149114997   -0.6187340967   -1.2676153471
 C    0.7213506748    0.1303204994   -2.5592370597
 C    1.5337160989   -0.6628187127   -3.4832430262
 N    2.1687738646   -1.2996496716   -4.2082828365
 C    1.4089232362   -0.7210416205   -0.1097756754
 C    2.7334397592   -0.0558607761   -0.1354432686
 O    3.7067589421   -0.4962343714    0.4250772075
 H    0.8097325147    2.1103630274   -0.4494496644
 H   -0.9101133289    1.9811922565   -0.0767273627
 H    0.2910867593    1.8697865639    1.2151423813
 H   -0.6329670112   -0.4159622146    0.6342066373
 H   -0.1319623345   -1.5393054361   -1.4477860185
 H   -0.2195682491    0.3844435450   -3.0620270186
 H    1.2358433223    1.0772027915   -2.3765609178
 H    1.4428084970   -1.6719626895    0.4109855776
 H    2.7955085000    0.8988342633   -0.7026086250