18

 C    0.1226829709    1.4845134614   -0.0206788007
 C   -0.3305221986    0.0314470656   -0.0332805630
 O   -1.1524961142   -0.4103196487    0.7418398214
 N    0.2696316705   -0.7342933315   -1.0110087168
 C    0.1593258727   -2.1674906877   -1.0617067553
 C   -1.2281047969   -2.7386661278   -1.2749133219
 C   -0.2475485341   -2.7645627778   -2.4060728780
 C    1.0990920228   -2.8996090277   -0.2490180867
 C    1.9028121107   -3.4981895155    0.4159934138
 H    1.0250577540    1.5778050658    0.5936184402
 H    0.3522050354    1.8622797106   -1.0212344915
 H   -0.6615700811    2.0920104528    0.4311534684
 H    1.0486074058   -0.3283266014   -1.5071545745
 H   -1.4531587189   -3.6641319206   -0.7601524381
 H   -2.0357134936   -2.0195014463   -1.2989322608
 H   -0.3840161223   -2.0601007004   -3.2187135432
 H    0.2093173506   -3.7074397151   -2.6808114869
 H    2.6004930062   -4.0258088959    1.0178195835