19

 C   -0.3037212106    1.5273825552    0.0940245058
 C   -0.0191315832    0.0466731831   -0.0035329328
 C    1.1416567791   -0.4479303760   -0.8821454998
 O    1.6284853616   -1.3323356682    0.1541601618
 C    0.6712394874   -0.8232640306    1.1239562223
 C    1.2929167685   -0.3809521374    2.4167294763
 C   -0.5626289424   -1.7564629460    1.0993894529
 O   -0.8894767501   -2.7142658201    1.7362500130
 C   -1.2267935774   -0.9384514017   -0.0277439797
 H    0.6092755051    2.0987298369    0.2918457606
 H   -0.7361128205    1.9060185543   -0.8397085973
 H   -1.0170005114    1.7451787746    0.8963476954
 H    0.8733698324   -0.9871917260   -1.7985553215
 H    1.8880630321    0.3201321516   -1.1241920075
 H    2.0750465609    0.3636655774    2.2408989340
 H    0.5400566705    0.0468122712    3.0865765654
 H    1.7428071758   -1.2421702443    2.9211687665
 H   -2.1668866357   -0.4899338238    0.3122719139
 H   -1.4192776720   -1.4717039700   -0.9632596993