16

 C   -0.0366696471    1.4798542383    0.0451098426
 C   -0.0241836945   -0.0200035726   -0.0061675398
 C   -0.0139649112   -0.7055357282   -1.1713814866
 O    0.0093575101   -2.0432731982   -1.2640399822
 C    0.0098770917   -2.7806777369   -0.1212623410
 C   -0.0067549141   -2.2257401907    1.1135462156
 N   -0.0628607276   -2.9209328753    2.3059350445
 C   -0.0066976008   -0.7570384971    1.2484416081
 O    0.0188568516   -0.2276295821    2.3599298328
 H    0.8334592508    1.8514202246    0.5957645143
 H   -0.0343303673    1.9185516747   -0.9562205815
 H   -0.9189922629    1.8385336439    0.5849715408
 H   -0.0188268449   -0.2436826267   -2.1517042208
 H    0.0209790353   -3.8413604712   -0.3338406034
 H    0.3868431508   -3.8224793324    2.3383149792
 H    0.1629680201   -2.3117188701    3.0839619673