18

 C   -0.0456370163    1.5625297534    0.0221233330
 C   -0.0404338026    0.0257419432   -0.0184074952
 C   -1.4729897808   -0.5317562384    0.0003783632
 N    0.7426637258   -0.4963928474   -1.1328791604
 C    1.8457731117   -1.2515200344   -0.8369964685
 O    2.5962783968   -1.7547422638   -1.6421506513
 C    1.9370544368   -1.3297112025    0.6857651209
 C    0.7511078455   -0.5262795619    1.1933808070
 O    0.4407328418   -0.3265153925    2.3376866562
 H    0.9727550659    1.9596096434   -0.0103638127
 H   -0.5986429153    1.9658047215   -0.8325792715
 H   -0.5263418662    1.9074606187    0.9410256584
 H   -2.0422841386   -0.1523747699   -0.8545703195
 H   -1.4698279383   -1.6242503509   -0.0475694074
 H   -1.9786878424   -0.2234789625    0.9188950632
 H    0.5024304453   -0.3227375787   -2.0976359079
 H    1.8934648755   -2.3667872574    1.0324449101
 H    2.8831784254   -0.9157215498    1.0477746924