12

 O    0.0714309933    1.3312854922    0.0936147856
 C    0.0625901951   -0.0048041460    0.0454902842
 N    0.1018435057   -0.6014674461   -1.1374759717
 C    0.0911163929   -1.9350050273   -1.1344370904
 C    0.0411040248   -2.6633673619    0.0542790338
 N    0.0013917827   -2.0493724172    1.2532567185
 C    0.0118834582   -0.7315470779    1.2531523906
 C    0.0307644348   -4.0968124179    0.0255701118
 N    0.0239399463   -5.2520323254   -0.0381133026
 H    0.1079674651    1.6489757324   -0.8206885132
 H    0.1229039403   -2.4371790375   -2.0964429426
 H   -0.0194543490   -0.2131758373    2.2064984559