16

 O    0.1190509341    0.2732498949   -1.0444094116
 C    0.0651125667    1.2297878681   -0.3338202702
 C   -1.0560618190    1.8988834875    0.4800911774
 C   -0.1219737401    3.1348260912    0.6705813965
 C    0.3138917648    3.4498934498    2.1126405470
 N    1.4260069375    2.5412689498    2.3236741409
 C    1.9841389056    1.9893314802    1.1984497685
 O    2.9960658332    1.3321400556    1.1511535061
 C    1.0618472570    2.3534715619    0.0208767408
 H   -1.9838785221    2.0626434726   -0.0737915893
 H   -1.2937332928    1.3631018644    1.4054290653
 H   -0.4618254786    4.0201788257    0.1353951176
 H    0.6233605818    4.4984648448    2.2193162436
 H   -0.4941982950    3.2662901007    2.8305042742
 H    1.9284547401    2.4842991138    3.1959151856
 H    1.6435622566    2.7654999490   -0.8044759721