18

 C   -0.4678304673    1.5094021476    0.0534594926
 N   -0.2164135587    0.0882088020    0.2089534442
 C   -1.2246537480   -0.7954514583    0.8147941391
 C   -0.0806547187   -1.6734800524    1.3723071742
 C    0.8630672130   -0.4455677688    1.0453920364
 C    2.1142241501   -0.8261584938    0.2721926103
 O    3.1393495233   -1.1957518080    0.7861814745
 C    1.2130005538    0.2776484044    2.3409050457
 O    0.4754428222    1.0538844987    2.8947476302
 H    0.4375492223    2.0003903086   -0.3196913204
 H   -1.2496433372    1.6450935292   -0.7018504523
 H   -0.7756938320    2.0095757838    0.9807990309
 H   -1.8082294802   -0.3167102823    1.6135840331
 H   -1.9113747575   -1.2616681243    0.0996530035
 H   -0.1326149202   -1.9628992416    2.4214911358
 H    0.1511845193   -2.5459216336    0.7596926371
 H    1.9817874754   -0.7624682675   -0.8305819372
 H    2.2082948903    0.0110973463    2.7528217322