18

 C    0.1340505814    1.5229677681    0.1615947943
 C    0.0661622136    0.0699379453    0.1131515826
 C    0.0100186020   -1.1332820882    0.0866461264
 C   -0.0375571964   -2.5682509918    0.0170979607
 N   -0.6931012554   -3.2989227819    1.1331945170
 C   -1.3103489333   -3.3301541470   -0.1905310440
 C   -2.6469906382   -2.6223778200   -0.3356097515
 C   -3.7726914900   -3.4935202548   -0.0165051069
 C   -4.6850795624   -4.2333102578    0.2378073443
 H    1.1726964246    1.8715470479    0.1677693948
 H   -0.3634024517    1.9766639001   -0.7028298859
 H   -0.3504398924    1.9102134808    1.0646397004
 H    0.8510527860   -3.0273616643   -0.4127184068
 H   -0.1903892887   -4.1627852128    1.3189015894
 H   -1.2241183464   -4.2475660792   -0.7700511780
 H   -2.6474371834   -1.7437508044    0.3174287270
 H   -2.7462309533   -2.2514630209   -1.3642334665
 H   -5.4986014258   -4.8743983891    0.4705260128