23

 C    0.1080391898    1.5208676768   -0.0620853389
 C   -0.0364968800   -0.0007026183    0.0050230544
 C   -1.4903253807   -0.4486245175   -0.0855979956
 O    0.6456785491   -0.6531139489   -1.0761836135
 C    2.0161663177   -0.7317169176   -0.9531275905
 C    2.9548910332    0.3088634067   -1.5075834646
 C    3.0027321331   -1.1058971383   -2.0456559994
 C    3.7698998968   -2.0005725558   -1.0646481585
 C    2.7386197593   -1.6369644449    0.0572986737
 H    1.1538117632    1.8274834274    0.0135887059
 H   -0.2958195030    1.8990277443   -1.0070264925
 H   -0.4426292378    1.9897849980    0.7600439340
 H    0.3904588957   -0.3586853847    0.9546957560
 H   -1.9260443489   -0.1277023234   -1.0373056660
 H   -1.5595490999   -1.5380559248   -0.0289464778
 H   -2.0802218483   -0.0162510643    0.7280766412
 H    2.4757705690    1.0229286427   -2.1689052755
 H    3.7827594151    0.7095629578   -0.9241794965
 H    2.8182271977   -1.3188889772   -3.0912315001
 H    3.7406361467   -3.0602433881   -1.3263895329
 H    4.8100155265   -1.7135638168   -0.8777339788
 H    3.1279695475   -1.1598747966    0.9624606885
 H    2.1279912983   -2.4972208764    0.3417093776