14

 C    0.0442106753    1.5044124213   -0.0296657092
 C   -0.0652569909    0.0211468482    0.0636687460
 C   -1.1256743890   -0.7320535941   -0.2924543753
 N   -1.1239679836   -2.1116265103   -0.1641179810
 C   -0.0610567113   -2.6559428507    0.3129823758
 C    1.1388259055   -1.9216312276    0.7267440366
 N    2.2257082237   -2.3695550553    1.2044358352
 O    1.0568580262   -0.5508580019    0.5671638241
 H    0.8859427569    1.7862620576   -0.6713186095
 H   -0.8729744353    1.9320227577   -0.4376844849
 H    0.2312081528    1.9378731707    0.9587202870
 H   -2.0213649772   -0.2772553239   -0.6942288564
 H   -0.0309837291   -3.7389788415    0.4252444911
 H    2.1786698059   -3.3846371801    1.2793746004