16

 C   -0.0898078013    1.5202552472   -0.0236284551
 N    0.0784771231    0.0775239309    0.0410489829
 C    0.7115113217   -0.5535811661   -1.1543044127
 C    1.3993524045   -1.8822800723   -0.6723382744
 C    1.5474480991   -1.5494586484    0.7755719764
 C    0.8019575154   -0.4684765332    1.1017792761
 N    0.8952080019   -0.2783198455    2.4437257129
 N    1.6442270144   -1.1659151215    2.9507530909
 O    2.0913553360   -2.0590228216    1.8641820624
 H    0.8598938483    2.0544606527   -0.1986847067
 H   -0.7821978352    1.7696696528   -0.8325372143
 H   -0.5194555422    1.8744890867    0.9160732086
 H   -0.0338683025   -0.7268820249   -1.9340450542
 H    1.4817023760    0.1217302633   -1.5589877582
 H    0.7451210020   -2.7516189920   -0.8132135246
 H    2.3323301787   -2.0784132582   -1.2061074299