22

 C   -0.9702283039    1.1833484667   -0.2341111227
 C   -0.2523564693   -0.1621757100   -0.1371831450
 C    0.5473916213   -0.5227658068   -1.4114281874
 O    0.8595123353   -1.9167033188   -1.5617152403
 C    2.1594594149   -1.7526827945   -0.9401017662
 C    1.8504630225   -0.2733964887   -0.6044866850
 C    2.8938970665    0.7877046786   -0.8689419041
 N    1.0229213230   -0.1892340642    0.6213865373
 C    1.3033630067    0.7107067123    1.7122771907
 H   -0.3217063338    1.9618270563   -0.6513683776
 H   -1.8458774857    1.0900279699   -0.8854511245
 H   -1.3176994083    1.5246858652    0.7459737904
 H   -0.9541658581   -0.9411583468    0.1871567688
 H    0.2628528824   -0.0419868523   -2.3518573386
 H    2.2982291160   -2.4124987249   -0.0777623592
 H    2.9654579069   -1.9070747117   -1.6712284031
 H    3.3246600761    0.6595764147   -1.8667343069
 H    2.4739662553    1.7964625027   -0.8080726813
 H    3.7140357291    0.7236225557   -0.1441715657
 H    1.2722282904    1.7861085058    1.4614358093
 H    0.5793284729    0.5395524391    2.5170581209
 H    2.2957171998    0.4946852919    2.1229460202