19

 C    0.0422509493    1.4343903252   -0.0285200392
 C   -0.1637820567   -0.0470243694   -0.0028655750
 C   -0.3032838724   -0.8986345037   -1.0272528463
 C    0.2428210000   -1.1057301211   -2.4238032379
 C    0.8743857554   -2.4184554000   -1.8249995134
 C   -0.1634620798   -2.3531524453   -0.6451446206
 C    0.1457735124   -2.2969768299    0.8399087851
 O    1.3073283894   -1.5592173475    1.2076733832
 C    0.0250811534   -0.8721495321    1.2400473243
 H    1.0148159347    1.7079451773    0.3996059235
 H   -0.0062856860    1.8257876354   -1.0482935357
 H   -0.7207184627    1.9557057086    0.5637141433
 H   -0.5230907695   -1.3403058276   -3.1705077973
 H    0.9172639208   -0.3470860637   -2.8273483657
 H    0.8465879636   -3.3099364302   -2.4551622378
 H    1.8871141745   -2.2408508610   -1.4602808116
 H   -1.0398686883   -2.9779748199   -0.8490540511
 H   -0.1167283920   -3.1123842067    1.5089110693
 H   -0.2798701961   -0.5473737986    2.2316024130