17

 C    0.4952644276    0.9945207975    0.5103836511
 O   -0.3081405388    0.3916313179   -0.5079495012
 C   -1.3035761661   -0.4045057245   -0.0548721333
 C   -1.3494460710   -1.6891627612    0.3962554997
 N   -2.6602020459   -2.0454887186    0.6925770815
 C   -3.3621786868   -0.9840199223    0.4108647291
 O   -4.6981974754   -0.8467678482    0.5211552758
 N   -2.6254430433    0.0622299591   -0.0449390534
 C   -3.0988961436    1.3612878355   -0.4747414555
 H    1.2560981326    1.5855498644   -0.0035306111
 H   -0.1043632493    1.6497255884    1.1543858465
 H    0.9781626427    0.2310290730    1.1298671369
 H   -0.5314827672   -2.3805198353    0.5202938668
 H   -5.0273495544   -1.7012660545    0.8277590083
 H   -3.3999919136    1.9801253894    0.3769791421
 H   -2.2867970623    1.8561948446   -1.0090396378
 H   -3.9557589152    1.2485206747   -1.1432023656