21

 C    0.0447607752    1.5077995203   -0.0524152999
 C   -0.0229759198    0.0092319601    0.0210377363
 C   -1.1631284499   -0.6854757287   -0.0047165248
 C   -1.1826250910   -2.1670829221    0.0110596056
 C   -2.1228190024   -2.8856464401    0.9615791275
 C   -2.3896963563   -2.9087252055   -0.5186214756
 C    0.1905258625   -2.7481453245   -0.2665406005
 O    1.1872280921   -2.0769628701    0.4845655594
 C    1.3005520945   -0.7145856901    0.1258169103
 H    0.6476538571    1.8395403363   -0.9083022781
 H   -0.9510789163    1.9474738040   -0.1532737805
 H    0.5167411973    1.9323484624    0.8433254825
 H   -2.1200380103   -0.1678049799   -0.0481137597
 H   -1.7612774685   -3.7929742433    1.4345554134
 H   -2.7662189293   -2.2804089925    1.5908793903
 H   -3.2161278124   -2.3209828849   -0.9049429187
 H   -2.2156984691   -3.8351323037   -1.0576175462
 H    0.2453130536   -3.8034260182    0.0179200047
 H    0.4133298789   -2.6725427665   -1.3450787648
 H    1.8551843315   -0.6083379100   -0.8268020853
 H    1.9216968924   -0.2500615630    0.9018056942