21

 O   -0.1903229551   -0.0236555884   -0.0857646781
 C   -0.0012024792    1.1619945892    0.0079954844
 C    1.3399983292    1.8443507156   -0.1511839363
 C    1.3261726227    2.9119142776   -1.2361606247
 C    0.4451014587    4.2018608281   -1.1493602705
 C    1.4644852925    4.7288437825   -2.1982551912
 C    2.5265533876    3.8874362897   -1.4355177493
 C    1.1622220519    3.8356476695   -3.4172178543
 C    1.0578916069    2.4556244233   -2.6900911657
 H   -0.8451840317    1.8572517732    0.2279371911
 H    1.5837804543    2.3148860909    0.8126422183
 H    2.0948426510    1.0779649393   -0.3568557799
 H   -0.6074173744    4.1342953060   -1.4421270161
 H    0.5356698227    4.7041625510   -0.1825634139
 H    1.6003430583    5.7952891940   -2.3781203512
 H    2.8426010925    4.3534217209   -0.4985206906
 H    3.3980001496    3.5233709461   -1.9890924588
 H    0.2324051913    4.1182598332   -3.9191887585
 H    1.9647649560    3.8606826003   -4.1598972870
 H    1.8057197167    1.7346020001   -3.0340692412
 H    0.0741703387    1.9897105781   -2.8031740264