16

 C    0.0313066912    1.5363693398    0.0238650317
 C   -0.0086625591    0.0426730538    0.0219473283
 C   -1.0677021022   -0.7899329532   -0.0017577635
 N   -2.4156396250   -0.5146666707    0.0409632624
 C   -0.5767345179   -2.2136399433    0.0146292021
 O    0.8409762252   -2.1123895333    0.0333967230
 C    1.2008176884   -0.7757161324    0.0460429031
 N    2.3994798703   -0.3629084996    0.0638849704
 H    0.9021240010    1.8847738298   -0.5378223153
 H   -0.8684837094    1.9714306918   -0.4265444937
 H    0.1225152500    1.9417568351    1.0387230182
 H   -2.6742394022    0.4392885472   -0.1665820401
 H   -3.0215817135   -1.1835180671   -0.4119700100
 H   -0.9229253449   -2.7602492807    0.9023666137
 H   -0.8925858533   -2.7790682620   -0.8744117610
 H    3.0503350914   -1.1484910152    0.0636804606