20

 C   -0.1188956910    1.5166167296    0.0648998614
 C   -0.0070618399    0.0269122850   -0.0088345205
 C   -0.0458984648   -0.7410986703   -1.0999093864
 C    0.0475369938   -2.2126144251   -0.7819731653
 C    0.5081979379   -2.2263891263    0.7024754730
 C    2.0375935318   -2.4280573086    0.8158999188
 C    2.4826354111   -3.7314736217    0.3274082160
 N    2.8169115251   -4.7679422554   -0.0600219177
 C    0.1230747948   -0.8226314443    1.2405241978
 H    0.7624004584    1.9591556002    0.5467606594
 H   -0.2241833321    1.9632613962   -0.9273631464
 H   -0.9848702519    1.8198380315    0.6675278077
 H   -0.1679648197   -0.3695556300   -2.1119642620
 H   -0.9279478887   -2.7042828362   -0.8981778271
 H    0.7380346031   -2.7588646959   -1.4351596189
 H    0.0192952336   -3.0240985910    1.2667755785
 H    2.5536739969   -1.6455664073    0.2463220507
 H    2.3551780080   -2.3258391917    1.8596794726
 H    0.8642551492   -0.4268480768    1.9475725865
 H   -0.8297178655   -0.8511264319    1.7874005919