19

 C   -0.1247215980    1.4971353272   -0.0320186048
 C    0.0499659382    0.0040544348    0.0397371239
 O   -1.2176298482   -0.7244019739   -0.0193723772
 C   -0.9359803611   -1.4090142191    1.2275853127
 C    0.4725809632   -0.7934811238    1.2955353789
 C    1.6110520336   -1.4334232519    0.4618603173
 O    2.8852754303   -1.6278894472    0.9643744400
 C    1.1176210110   -2.1224148351   -0.7767334063
 C    1.2169309012   -0.6140213003   -0.7676483631
 H    0.8337868630    2.0052260265    0.1152140305
 H   -0.5134827907    1.7831114387   -1.0160347856
 H   -0.8296018341    1.8456054167    0.7281744376
 H   -1.6121180876   -1.0735283112    2.0237677776
 H   -1.0081452063   -2.4990158266    1.1317030998
 H    0.8063178462   -0.2998777923    2.2072354979
 H    2.9672752593   -2.5473286621    1.2407613308
 H    1.9086344033   -2.6059863494   -1.3416723281
 H    0.1470494973   -2.6020622198   -0.8393057434
 H    1.8338440194   -0.0785191712   -1.4800209484