19

 C    0.2891121053    1.4825277701   -0.1508068764
 C    0.0328389269   -0.0130451613   -0.0270195873
 O   -1.3596826190   -0.2857571386   -0.0544721488
 C    0.8890646273   -0.9529054130   -0.9374589654
 N    1.4736832722   -1.6545946652    0.2437473739
 C    2.7215981423   -1.0036657349    0.7629075556
 C    1.9231968877   -0.2524418027    1.8620004725
 C    0.6496862063   -0.7844785501    1.1746747496
 H    1.3546040514    1.7240889660   -0.1057197933
 H   -0.0847273895    1.8482111983   -1.1158352925
 H   -0.2291806645    2.0285698306    0.6436049361
 H   -1.7246848525    0.0994669179   -0.8588453621
 H    0.2725146151   -1.6258623005   -1.5418858561
 H    1.6292587007   -0.4662380501   -1.5842054853
 H    3.4548543066   -1.7312976871    1.1232031539
 H    3.2169588647   -0.3574244506    0.0273040636
 H    2.0648045667   -0.6679680602    2.8618315613
 H    2.0468079678    0.8311280220    1.9206124555
 H   -0.1048378954   -1.2739413705    1.7953137653