22

 C   -1.5130516944   -1.0941633895    2.8228298153
 C   -0.8597845931   -1.0239337639    1.4580551372
 C   -0.8783305516    0.2403291285    0.6295760679
 C    0.4331908444   -0.3011239393    1.1426786343
 C    1.3421244279    0.4483783771    2.1282591283
 C    2.0924286635   -0.5554515211    3.0341067070
 C    2.3612260713    1.2897030652    1.3181319164
 C    0.5895172232    1.3867456835    2.9764581237
 N    0.0287601909    2.1497500814    3.6403616801
 H   -1.4242394058   -0.1589764209    3.3783742347
 H   -2.5812821011   -1.3122145695    2.7147910543
 H   -1.0773703650   -1.8939271887    3.4325495127
 H   -0.9781702287   -1.9415548969    0.8858815769
 H   -1.0897117383    0.1827893249   -0.4325998305
 H   -1.2644321740    1.1324949358    1.1133197937
 H    1.0483771838   -0.8049865415    0.4003875401
 H    2.6583461057   -1.2522742210    2.4081815686
 H    2.7932511878   -0.0399316662    3.6966942712
 H    1.3954296642   -1.1315407455    3.6461197773
 H    1.8478971228    1.9938248705    0.6588915778
 H    3.0205296041    1.8533753154    1.9835138941
 H    2.9758302823    0.6239954516    0.7045788189