23

 C   -0.0246075024    1.5341755439   -0.2475716657
 C   -0.0033552833    0.0889224279    0.2668985968
 C   -1.3551478351   -0.5893082609    0.1300486270
 C   -1.8547915181   -1.2732580312   -1.1276834152
 C   -0.8310537395   -1.7409677416   -2.1435380397
 O    0.1693068621   -2.4466845494   -1.4103719505
 C   -0.4124806129   -2.9698791873   -0.2204866223
 C   -1.6006507877   -2.0836375514    0.1293363069
 C   -2.6983696694   -2.6865904312    0.9734344473
 H    0.9517424315    2.0129839122   -0.1227471504
 H   -0.2832146745    1.5719218715   -1.3111602881
 H   -0.7631283458    2.1384861564    0.2915909705
 H    0.7620062587   -0.4818732414   -0.2645355103
 H    0.2853382271    0.0884617925    1.3264748824
 H   -2.1454070385   -0.0435287260    0.6455962933
 H   -2.8632652049   -1.0778118207   -1.4767194894
 H   -1.3138324966   -2.3960240156   -2.8870859606
 H   -0.3220362904   -0.9349635171   -2.6843353247
 H   -0.7644056232   -4.0039629650   -0.3741274230
 H    0.3744817093   -2.9913827395    0.5424882359
 H   -2.3467978626   -2.9102704564    1.9878798812
 H   -3.5461005564   -2.0009214412    1.0652482404
 H   -3.0690796773   -3.6224140186    0.5383788582