19

 O    0.1561549736    1.1525368689   -0.7587142807
 C    0.0724180304   -0.0756809470   -0.0715054125
 C    0.1562217979   -0.0366699484    1.4820323267
 C   -1.2471613260   -0.7054090234    1.5710637166
 C   -2.3744387565    0.1609073826    2.1732268612
 C   -2.7267174851    1.1842707167    1.0797746897
 C   -2.4605148551    0.4492786603   -0.2364860509
 O   -3.0297386730    0.6297037283   -1.2801308302
 C   -1.3864442275   -0.6134045287    0.0183296528
 H    1.0738126301    1.4433057128   -0.7546289972
 H    0.7483659512   -0.8212245809   -0.5104027183
 H    0.9812086943   -0.5996023180    1.9251171820
 H    0.1820049301    0.9858025743    1.8712080884
 H   -1.2275670733   -1.7119273504    1.9909955629
 H   -3.2482126312   -0.4665322175    2.3838614738
 H   -2.0734351456    0.6248208424    3.1176054384
 H   -3.7475024623    1.5682662756    1.1183622480
 H   -2.0468946514    2.0462430833    1.1030017885
 H   -1.5929926406   -1.5082626808   -0.5692269894