17

 O   -0.2230347716    1.4530437115   -0.0226682498
 C   -0.1455560837    0.0455076017    0.0539858856
 C   -0.4596972830   -0.7507068381    1.2823692230
 O    0.4845590211   -1.6360630576    1.7586276670
 C   -1.5444831517   -0.0621803060    2.1057081764
 C   -2.4963216032   -0.1025342517    0.8512866981
 O   -3.0465350143    1.0953332988    0.3703748713
 C   -1.3936276621   -0.7842254430    0.0321788843
 O   -1.6048098790   -1.7960040838   -0.8841808949
 H    0.4847320869    1.8279585295    0.5130057916
 H    0.6618174059   -0.3985874318   -0.5287096599
 H    0.0265076245   -2.3824031696    2.1616950221
 H   -1.9110459973   -0.6795676403    2.9307603173
 H   -1.3106838673    0.9370827146    2.4837258505
 H   -3.3309761648   -0.7890706010    1.0157745063
 H   -2.2971750535    1.6708950492    0.1667255157
 H   -1.7330636368   -1.4021948923   -1.7546924147