20

 C    0.0475149167    1.5233188352    0.0108256409
 C   -0.0567917464   -0.0021076433   -0.1116400739
 C   -1.4820488174   -0.4991681284   -0.0417083204
 C   -2.5266553319   -0.3596720949    1.0914109562
 N   -3.3066313819   -1.1871422527    0.0519425021
 C   -2.6893755041   -0.2079005243   -0.9701526401
 C   -2.0029266057   -1.9843003640   -0.0820494925
 C   -1.7788747454   -2.8539625841   -1.2867754997
 O   -2.4580583900   -2.8937993228   -2.2821867938
 H    1.0897951165    1.8500737059   -0.0423182288
 H   -0.5010007479    2.0240671103   -0.7936290285
 H   -0.3642540438    1.8734080395    0.9630566153
 H    0.3898395350   -0.3291089369   -1.0594281139
 H    0.5265113233   -0.4799416066    0.6863422758
 H   -2.3480788593   -0.8886620866    2.0324199763
 H   -2.9657730286    0.6263155183    1.2637323608
 H   -3.1300339462    0.7909420198   -0.9157565672
 H   -2.6840686197   -0.5899983322   -1.9890403888
 H   -1.7691671906   -2.5727272168    0.8150810288
 H   -0.8759408825   -3.5022796054   -1.1866225186