23

 C    0.0900409115    1.3921459889    0.0071409553
 O    0.0409549157   -0.0238289960   -0.0174316008
 C    0.6803687150   -0.5977266641   -1.1049698467
 O    2.0711556807   -0.3136772857   -1.0156327663
 C    2.7872804685   -0.7748326989   -2.1516927863
 C    2.6743811308   -2.2937895529   -2.3000212368
 C    1.1957384873   -2.7116576561   -2.3078279830
 C    0.4229813318   -2.1099455620   -1.1134045002
 C    0.7852149797   -2.7561834913    0.2300123204
 H    1.1177481870    1.7573921703    0.1018734987
 H   -0.3555191751    1.8202808669   -0.9038443091
 H   -0.4937757173    1.7134046181    0.8723284197
 H    0.3027561276   -0.1498302952   -2.0496670108
 H    2.4056586167   -0.2797628245   -3.0624202248
 H    3.8241510859   -0.4572510033   -2.0092927357
 H    3.1703017237   -2.6126264483   -3.2240309807
 H    3.2035081391   -2.7738529030   -1.4695925301
 H    0.7345129941   -2.3638131856   -3.2421888437
 H    1.1017936617   -3.8029354252   -2.3019823481
 H   -0.6507423406   -2.2501308796   -1.2884993104
 H    1.8304450366   -2.5733133939    0.4922513272
 H    0.1683493264   -2.3436850226    1.0309041584
 H    0.6245447234   -3.8384612560    0.1901345037