15

 O   -0.0034264997    0.0083832084    0.0822560616
 C   -0.0149217325    1.2026382007    0.0868375471
 C   -1.1401866443    2.2638662720    0.0977553417
 C   -0.0495328550    3.3702879791    0.0117993952
 C    0.5528801304    3.8892302754    1.3418079935
 N    0.5264391917    2.7601514780    2.3010697299
 C    1.6244134815    2.8576045636    1.3085508332
 C    1.0882543787    2.2868731606   -0.0268939086
 H   -1.7672923172    2.1968150397   -0.7973482270
 H   -1.7723807561    2.2512586026    0.9870926331
 H   -0.1348573472    4.1092283966   -0.7821825502
 H    0.5744254296    4.9129635651    1.6950460128
 H    0.8888022730    3.1032661595    3.1892876836
 H    2.6578062654    2.8931602431    1.6292213058
 H    1.8083562618    2.2083101456   -0.8413044017