17

 O   -0.0026897966    1.3218969119    0.0188581466
 C    0.0185248957   -0.0785298061    0.0143938322
 C    1.1125413060   -0.6699579218   -0.8610694164
 O    1.1044691181   -2.0817361627   -0.9564511459
 C   -0.1686546166   -2.6748309454   -1.1120878622
 C   -1.1439497332   -2.1866563464   -0.0486753406
 O   -0.4947389843   -2.1400434670    1.2600076467
 C   -0.5839976351   -0.7194989498    1.2533428353
 C   -1.3637626593   -0.6650918927   -0.0383648278
 H    0.7361009742    1.6294577411    0.5566881805
 H    1.0066079813   -0.2038805790   -1.8561622215
 H    2.1046057702   -0.4062371069   -0.4748381341
 H   -0.6006749060   -2.4762863710   -2.1087965608
 H    0.0010053873   -3.7518267350   -1.0199619141
 H   -2.0556500851   -2.7906296294   -0.0156487902
 H   -0.7014828385   -0.2003223857    2.1978464603
 H   -2.2463583784   -0.1155323938   -0.3349683481