23

 C    0.0467750058    1.5421602101    0.0917339829
 C   -0.0071028597    0.0120933713    0.0870594246
 C   -1.4336645431   -0.5379644753   -0.0106650149
 C   -1.4943382272   -2.0685822318   -0.0162096384
 C   -2.9150858932   -2.6178862792   -0.0832557924
 C   -3.0089622824   -4.1568807510   -0.0701606255
 O   -4.1689315929   -4.4174010347    0.7043408084
 C   -4.1655547334   -3.4105984008    1.6823105086
 O   -3.6771098405   -2.2333993661    1.0716347968
 H    1.0760296907    1.9065061647    0.1684231911
 H   -0.3854166404    1.9564534255   -0.8260423755
 H   -0.5169441854    1.9544655649    0.9358897017
 H    0.5904072119   -0.3736752761   -0.7500859677
 H    0.4673381279   -0.3739562829    0.9991723102
 H   -2.0330590935   -0.1655830409    0.8285203603
 H   -1.9106770803   -0.1522448441   -0.9227031490
 H   -0.9311484083   -2.4613297492   -0.8749952135
 H   -1.0089408997   -2.4645864750    0.8856999728
 H   -3.4276385296   -2.2124617716   -0.9672642069
 H   -3.1464734582   -4.5979521762   -1.0593078115
 H   -2.1145117738   -4.5980330042    0.3989473835
 H   -5.1911444738   -3.2512292934    2.0305807292
 H   -3.5179009809   -3.6923585237    2.5333461949