23

 C    0.0991176649    1.6233903629    0.0087255444
 C    0.0162752740    0.0942886131    0.0021582076
 C    0.6040382136   -0.5006702371   -1.3017186870
 C    0.8347937219   -2.0327183711   -1.2061058153
 C    1.8150397805   -2.2901628152   -0.0420763472
 C    0.8764764122   -2.0451375262    1.1584185882
 C    0.6495115708   -0.5142216305    1.2781915460
 C   -0.3871823541   -2.7389683488    0.6616375722
 C   -0.4107011127   -2.7319597641   -0.6724072101
 H    1.1407670626    1.9655154174   -0.0078800577
 H   -0.4039737305    2.0521178765   -0.8651988687
 H   -0.3727112326    2.0428271311    0.9043265931
 H   -1.0453679916   -0.1776418360    0.0194420471
 H   -0.0650374881   -0.2582209787   -2.1365014562
 H    1.5670351841   -0.0233041235   -1.5288688424
 H    1.1828594940   -2.4227479622   -2.1673062943
 H    2.1646836201   -3.3271656240   -0.0536852088
 H    2.6858260079   -1.6259290827   -0.0539381182
 H    1.2581350448   -2.4451732206    2.1026045174
 H    1.6200001616   -0.0390852248    1.4762719208
 H    0.0103081921   -0.2806841915    2.1385320048
 H   -1.1743557834   -3.0962912120    1.3160090370
 H   -1.2205176121   -3.0825338223   -1.3023426528