22

 C   -0.1048993593    1.5651868198    0.0185348636
 C   -0.0296834511    0.0289384714    0.0122637798
 C   -1.4579995029   -0.5578383165    0.0506676325
 C    0.7100688091   -0.4233960238   -1.2655769332
 N    1.0222806484   -1.8653256722   -1.2869995101
 C    2.4373299963   -2.2206742979   -1.1546954130
 C    1.4952878019   -2.4304617809   -0.0179368005
 C    1.4854280917   -1.5678913060    1.1887941164
 C    0.7579762927   -0.4521584217    1.2174818037
 H    0.8937814529    2.0138272648    0.0446815248
 H   -0.6193663304    1.9358899636   -0.8749358598
 H   -0.6572655735    1.9237211989    0.8940495056
 H   -2.0600536637   -0.1606427667   -0.7746124460
 H   -1.4359168478   -1.6469393097   -0.0372190553
 H   -1.9614656988   -0.3020983858    0.9889521458
 H    0.0940779389   -0.2055567905   -2.1469888758
 H    1.6256352874    0.1776202276   -1.3574235287
 H    2.7735295044   -3.0645017292   -1.7522494640
 H    3.1546302107   -1.4066934414   -1.0639984569
 H    1.1518474454   -3.4513688456    0.1557155388
 H    2.0335589502   -1.9103828301    2.0629269096
 H    0.7043668674    0.1505265119    2.1215127025