21

 C   -0.0147137613    1.5662868859   -0.0656189538
 C   -0.0049906608    0.0366062750   -0.0352708595
 C   -1.4327396845   -0.5168966297    0.0893605553
 C    0.6579242445   -0.5967344585   -1.2685679742
 N    2.0679544821   -0.2214432954   -1.4761154707
 C    1.7396467849   -1.5003643330   -0.8040805669
 C    1.7734383576   -1.4298864652    0.7058829665
 C    2.1583446906   -0.1334890909    1.3213502748
 N    0.7378759683   -0.4798275399    1.1594006438
 H    0.9856666130    1.9623825996   -0.2518536474
 H   -0.6748472914    1.9301862127   -0.8597802798
 H   -0.3794347874    1.9615603467    0.8871993469
 H   -2.0507505356   -0.2108208033   -0.7617608079
 H   -1.4207038309   -1.6105694285    0.1316964783
 H   -1.8976207345   -0.1510769135    1.0082796742
 H    0.0422629019   -0.8238090646   -2.1349882808
 H    2.3303450181   -0.4019093731   -2.4420748109
 H    1.9761961166   -2.4351273431   -1.3002256399
 H    1.8621279034   -2.3681412616    1.2471499274
 H    2.4847564980   -0.1004407642    2.3579220480
 H    2.6122727875    0.5980613545    0.6632046566