14

 O    0.0775224858    0.0525679314    0.7699442363
 C    0.1373980530    1.1238131222    0.2407786971
 N    1.3053440605    1.7839352592   -0.1596231559
 C    2.6204938707    1.3287517752   -0.0459642599
 O    2.9425740731    0.2456103333    0.3608083946
 C    3.6584353314    2.3902328568   -0.4501000589
 O    4.8820619280    1.7942473482   -0.8144133438
 C    5.6525287565    1.2977040388    0.1915766053
 O    6.6715809528    0.7231015032   -0.0253039414
 H   -0.7491316588    1.7439776706   -0.0004523163
 H    1.1667474884    2.6935204534   -0.5772299658
 H    3.3270429185    2.9700720433   -1.3158854438
 H    3.7788780245    3.0861288366    0.3936765621
 H    5.2448061056    1.5159759477    1.1942390204