23

 C    0.5605595162    1.1304720324   -0.4413654290
 C    0.1569526966   -0.3102514907   -0.1206162483
 C   -1.3496105421   -0.4872253897    0.0861775157
 O   -2.0391049344   -0.1395664315   -1.1099168412
 C   -2.9583988777    0.9238967863   -0.9945325831
 C   -1.7260134786   -1.9352909070    0.5049469068
 C   -3.2365764890   -2.0770772024    0.7737197401
 C   -1.2828612617   -2.9267951040   -0.4745126737
 C   -0.9380078709   -3.7597491615   -1.2698531210
 H    1.6413355307    1.2094558421   -0.5927334938
 H    0.0681643723    1.4752767749   -1.3548582800
 H    0.2895954831    1.8155454634    0.3705310806
 H    0.4688108447   -0.9762689305   -0.9318800978
 H    0.6739434460   -0.6526001869    0.7850141904
 H   -1.6786826164    0.1725594083    0.9040838291
 H   -3.7663886343    0.7014806989   -0.2823902634
 H   -2.4719689500    1.8601455540   -0.6836060217
 H   -3.3992564534    1.0730494321   -1.9839958815
 H   -1.1911402425   -2.1290831120    1.4456325955
 H   -3.8017267926   -1.8678517693   -0.1371401131
 H   -3.4763652387   -3.0922281029    1.0993220866
 H   -3.5549451998   -1.3800808820    1.5560274327
 H   -0.6272665275   -4.4900528520   -1.9752616999