19

 C    0.3185959715    1.4295687903    0.2729472462
 C   -0.2118727479    0.0439049027   -0.1226337035
 C    0.4251422840   -0.4810270142   -1.3703479135
 O    1.7992047229   -0.9255357426   -1.3215314810
 C    0.8013217388   -1.8513471575   -1.7989603096
 C    0.6604658156   -3.1810129188   -1.1354514787
 C    0.5105076045   -1.4695035463   -3.2522147530
 O   -0.8556887518   -1.0263907395   -3.3179972469
 C    0.1399476075   -0.1109622875   -2.8290850454
 H    1.3986027648    1.3943345196    0.4422260036
 H    0.1238064375    2.1687106168   -0.5111669421
 H   -0.1610254245    1.7820514191    1.1904971484
 H   -0.0322460371   -0.6670379364    0.6913165361
 H   -1.2960227689    0.0833375711   -0.2825994747
 H    0.6916089635   -3.0765426298   -0.0478487933
 H   -0.2890059492   -3.6447606610   -1.4199713926
 H    1.4722291828   -3.8537503112   -1.4333278003
 H    0.9798922714   -1.8011537868   -4.1702340467
 H    0.2624385847    0.8288482620   -3.3529123830