19

 C    0.1419349932    1.5755067426    0.0645268280
 C   -0.1458215109    0.1026166490    0.2333828170
 C   -1.3733175223   -0.4118581574   -0.5010170940
 O   -1.2092871499   -0.3045100436   -1.9040488196
 O    0.9822347789   -0.7954735122    0.0575783731
 C    0.3827233392   -0.7088307651    1.3476431806
 C    1.2302519411   -0.2153255114    2.4820811824
 C    2.6779110670   -0.4743470069    2.5123595267
 O    2.1628584761    0.8337756364    2.2549624771
 H    1.1327246609    1.8246311143    0.4393862434
 H    0.0697711778    1.8332655214   -0.9960100388
 H   -0.6028012360    2.1698936457    0.6054455376
 H   -1.5747481193   -1.4510481436   -0.2007392811
 H   -2.2510784954    0.1915017923   -0.2455924167
 H   -0.4117490420   -0.8009680005   -2.1227596158
 H   -0.1939895517   -1.5930203766    1.6365488679
 H    0.6962439015   -0.1490829906    3.4318177858
 H    3.1869502589   -0.5966244859    3.4665774065
 H    3.1357218028   -0.9622676880    1.6549806996