23

 C   -0.0289282615    1.6227445549   -0.1141867646
 C   -0.0871692350    0.0932996155   -0.0506164228
 C    0.7136647498   -0.5689009401   -1.1597788373
 O    2.0980838267   -0.3095933725   -0.9783206087
 C    2.7928294861   -1.1355669158   -1.9083488978
 C    1.9314844257   -2.4083788685   -2.0935189929
 C    0.6324257038   -2.1098766597   -1.2887081470
 C    0.6350032506   -2.8298584043    0.0608733386
 O   -0.5574353551   -2.4007323799   -2.0144582257
 H    1.0043210962    1.9721055701   -0.0384955332
 H   -0.4403200989    1.9944367027   -1.0591940403
 H   -0.6039523233    2.0735058110    0.7003869970
 H    0.2891064431   -0.2496716726    0.9193052756
 H   -1.1243487679   -0.2513128228   -0.1388555219
 H    0.3753667160   -0.1657758089   -2.1321855298
 H    2.9190608801   -0.6057085130   -2.8642765720
 H    3.7866534629   -1.3340216755   -1.4979867183
 H    1.6677992550   -2.5652581668   -3.1419099517
 H    2.4392891083   -3.3070062850   -1.7330594675
 H    1.4987069956   -2.5252899868    0.6594229153
 H   -0.2764591257   -2.6158880837    0.6250451335
 H    0.7003617613   -3.9147804648   -0.0876155255
 H   -0.7021951238   -3.3517496135   -1.9851192632