13

 C   -0.0258474941    1.4394000683   -0.0000338532
 N   -0.0003756173   -0.0122728076    0.0033420386
 N    0.0519120250   -0.7114338213   -1.1327361913
 C    0.0763610004   -1.9733876827   -0.7116501599
 C    0.0352245476   -1.9863817055    0.6949614588
 C    0.0394954411   -3.1464623259    1.5956978686
 O    0.0007478447   -3.0998863397    2.8006641931
 N   -0.0126401798   -0.7099297653    1.1179755904
 H    0.9129309105    1.8257081378   -0.4037798888
 H   -0.8545263767    1.7867022700   -0.6197526517
 H   -0.1559190219    1.7657229718    1.0299731441
 H    0.1179941747   -2.7934935115   -1.4113656382
 H    0.0825444460   -4.1172995683    1.0527728595