14

 C    0.0221202536    1.5860528838    0.1008249314
 C    0.0298378247    0.0619312170   -0.0615818332
 O    0.8084733116   -0.5792633614    0.9376858016
 C   -1.3638497068   -0.5004611652   -0.0889457723
 C   -2.1037727747   -1.1552875037   -1.0236077822
 N   -3.3239499828   -1.4296535896   -0.4509766432
 N   -3.3751406066   -1.0066696328    0.7264331901
 O   -2.1014265606   -0.3776722622    1.0139532031
 H    1.0518700706    1.9498973268    0.1312262861
 H   -0.5011072342    2.0687906638   -0.7301752796
 H   -0.4816989888    1.8709778821    1.0298996208
 H    0.5080116535   -0.2023948885   -1.0098595843
 H    0.3922869345   -0.4088918242    1.7908292249
 H   -1.8639637839   -1.4470522558   -2.0313286831