16

 N    0.0647812532   -1.1494590121    0.0268492960
 C   -0.0079857910    0.0070101754    0.0033449028
 C   -0.0516624059    1.4195246361   -0.0491617874
 C   -1.1277189491    2.2276685044   -0.0070778749
 C   -0.6167344845    3.6517241347    0.0406372977
 C    0.0916162239    3.7827392670    1.4271664367
 O    1.2250938955    2.9121570294    1.3177559748
 C    1.1702562288    2.3488239480   -0.0134813576
 C    0.6518641676    3.5278163452   -0.8476981474
 H   -2.1625152133    1.9261734784    0.0889069621
 H   -1.3321598248    4.4407293307   -0.1831451523
 H    0.4320122194    4.8103625985    1.6024788563
 H   -0.5450426243    3.4691863934    2.2612934162
 H    2.1372242490    1.9076872939   -0.2426303588
 H    0.4241508708    3.2716083432   -1.8828989444
 H    1.3141483347    4.3958449938   -0.8005337000