21

 C   -0.0581286001    1.7192293400    0.0694816880
 C   -0.1315896970    0.1942583908    0.0372636188
 N    0.6492438869   -0.3900927453    1.1287391639
 C    2.1185020740   -0.5188044206    0.8913002122
 C    2.2200928997   -1.7517570341    1.8255574743
 C    0.8591843216   -1.8637915709    1.0522004501
 C    2.0381688407   -1.7984815873   -0.0135743911
 N    3.0396436293   -2.5071913847    0.8349699433
 C    2.9077323515   -3.9600374490    0.8828297236
 H    0.9653834429    2.0707764103   -0.0995751940
 H   -0.6919209690    2.1556610648   -0.7085362075
 H   -0.3868052967    2.0965369404    1.0419167953
 H   -1.1716712361   -0.1272891715    0.1754512290
 H    0.1840829252   -0.1734587430   -0.9559426396
 H    2.8106614299    0.3192417171    0.8156177358
 H    2.3898619068   -1.7663965279    2.9022428665
 H    0.0378233569   -2.5734842949    1.1610626651
 H    2.0206600408   -1.8987732591   -1.0996845787
 H    3.3226192422   -4.3891755253   -0.0352645162
 H    3.4917989557   -4.3475833429    1.7241194800
 H    1.8704792948   -4.3211064069    0.9909579113