17

 C   -0.1789125019    1.6056436456    0.0290440776
 C    0.0351219023    0.0968702117    0.0709721962
 C    1.1617209718   -0.4847509062   -0.8885296196
 N    1.8361684418   -0.9135591329    0.3405679539
 N    2.8102639583   -1.6576830160    0.8571261283
 C    2.4793357106   -1.6666914814    2.1633819521
 C    1.2777654324   -0.9598391410    2.4441096612
 O    0.7339998139   -0.8423264254    3.6888527961
 C    0.8918119792   -0.4821125903    1.2017459251
 H    0.7689803082    2.1398471450    0.1457621107
 H   -0.6321308558    1.9084516052   -0.9207699661
 H   -0.8477169073    1.9276685172    0.8337204423
 H   -0.9157642932   -0.4283545009   -0.0649311162
 H    0.8452174438   -1.3096989574   -1.5325185233
 H    1.7173272192    0.2563808359   -1.4704687189
 H    3.1097001097   -2.1718403771    2.8799769972
 H   -0.0780992929   -0.3319865621    3.6288852534