17

 O    0.3872990198    1.1330152714    0.7020194072
 C    0.0715201040   -0.1155601228    0.1594151209
 C   -1.4192078935   -0.4585285719    0.0791971448
 C   -1.4418486234   -1.6376015829   -0.9172537055
 C   -0.3980410824   -1.2646794551   -2.0149453994
 C   -0.9882729546   -0.6705412195   -3.2048377619
 C   -1.4958628355   -0.1660197062   -4.1700313686
 C    0.5217714353   -0.2430170733   -1.2942142154
 O    1.4013157508    0.4184153552   -1.7777274714
 H    1.0869399114    1.4989025301    0.1404507235
 H    0.5818685331   -0.9295296204    0.7127650931
 H   -1.8534681247   -0.7112979373    1.0482612381
 H   -1.9612116473    0.4041221035   -0.3240418055
 H   -1.1255839361   -2.5581598296   -0.4159006971
 H   -2.4298466977   -1.8146941004   -1.3425239141
 H    0.2097979171   -2.1294202970   -2.3073237181
 H   -1.9323607864    0.2763687763   -5.0311253506