18

 N   -0.1320256588   -0.6605861769   -1.2380670830
 C   -0.0531933271    0.3192816764   -0.6287391842
 C    0.0887572591    1.5703683946    0.1107101642
 N    0.0817016427    1.4563358675    1.5808326807
 C    1.1275991202    2.5011123608    1.6970157300
 C    1.5141705514    2.2471309874    0.2240935617
 C    2.7583779611    1.4271523839   -0.1874334949
 C    2.8908711938    2.4210583977   -1.3694015898
 N    1.9365745969    3.3149130304   -0.6678534891
 H   -0.6311522597    2.2987526190   -0.2955840011
 H   -0.8082536222    1.6576379746    2.0224440518
 H    0.7459099620    3.5234815050    1.8312529761
 H    1.8878752519    2.2984766655    2.4577617423
 H    3.5675600362    1.5096817746    0.5405267332
 H    2.5936036420    0.3788168060   -0.4353666242
 H    3.8739626455    2.8686661994   -1.5432343072
 H    2.5167722043    2.0071706293   -2.3138636172
 H    1.2195790907    3.7663684948   -1.2254457294