23

 C   -0.0609264686    1.5136340828   -0.0280467234
 C   -0.0126171409    0.0046251046    0.0159817149
 C    1.2966029176   -0.7165394602   -0.2384199272
 C    0.6514441253   -0.7973589044    1.1309537708
 C    1.3390804029   -0.1779284678    2.3245468321
 C   -0.2055297158   -2.0307632480    1.3844476216
 C   -1.1048569678   -2.1854653333    0.1463790078
 O   -2.3232419529   -2.8062662000    0.5315526204
 C   -1.2710951589   -0.7473568727   -0.3981275587
 H    0.8637597087    1.9634766972    0.3453542201
 H   -0.2044301283    1.8706188400   -1.0550812980
 H   -0.8906190451    1.9036534692    0.5737779578
 H    1.3246065229   -1.5907552652   -0.8822341947
 H    2.1824624942   -0.0931558730   -0.3191560416
 H    1.8817458352    0.7335111298    2.0570628939
 H    0.6187266456    0.0784560927    3.1106357327
 H    2.0662865947   -0.8734042277    2.7605666506
 H    0.3803798345   -2.9342039159    1.5864860766
 H   -0.8531900157   -1.8605525730    2.2538507227
 H   -0.5976268046   -2.8088008151   -0.6043087916
 H   -2.8434669879   -2.9586483709   -0.2634283672
 H   -2.1456948849   -0.2982203822    0.0902735333
 H   -1.4504524005   -0.7254595667   -1.4805904128