13

 N   -0.1484578232    1.0149350213    1.0509443607
 C    0.0210854450    0.1278635224    0.1550106120
 N   -1.1777492104   -0.5168666243   -0.2543247591
 N   -1.5854477360   -1.2938999616   -1.2653909526
 N   -0.8601217386   -1.7829831027   -2.1638816832
 C    0.5473680836   -1.6332108780   -2.2872552989
 N    1.1229536202   -2.1589484033   -3.3008344960
 C    1.4812758685   -0.9544626851   -1.3483032501
 N    1.2796288078   -0.2140822858   -0.3330481735
 H    0.7612691484    1.3829814011    1.3266415311
 H   -1.9682797447   -0.2012282074    0.2929930351
 H    0.4084057725   -2.5990031974   -3.8898920105
 H    2.5184974868   -1.1320509291   -1.6334094851