21

 C   -0.2078832105    0.9791302229   -0.2758420043
 C   -0.0270372936   -0.5265099246   -0.0523029493
 N    0.7380944787   -1.1381612126   -1.1312107464
 C    1.9962822736   -1.2199021635   -1.0264423540
 O    2.6835479326   -0.7165990036    0.0321773449
 C    4.0587968526   -1.0523398544    0.2074645782
 N    2.7980387972   -1.8748995900   -1.9790226852
 C    3.3447006252   -1.0722078386   -3.0870700333
 C    2.2537745287   -2.0607929432   -3.3121741563
 H    0.7580752879    1.4918652036   -0.2381471426
 H   -0.6598074769    1.1716970697   -1.2537092355
 H   -0.8553130632    1.4104784258    0.4946865975
 H    0.4404024014   -0.6958643460    0.9266172643
 H   -1.0116715230   -1.0076861997   -0.0357254869
 H    4.6891102701   -0.5868776329   -0.5572170897
 H    4.3326986300   -0.6565553862    1.1873224141
 H    4.2131526904   -2.1338767232    0.1843286028
 H    3.0739034604   -0.0198832315   -3.1184918734
 H    4.3694383546   -1.2988685987   -3.3665467615
 H    2.4833997934   -3.0193457454   -3.7672036938
 H    1.2513221004   -1.6806849280   -3.4775173897