17

 O    0.5797167867    0.8594883042   -0.6676592477
 C    0.1948128754   -0.2978459931    0.0062209376
 C    0.0252872768   -0.2256262824    1.5240222821
 O    0.4725452708    0.5466961521    2.3252284489
 C   -1.1846860355   -1.1661162958    1.4862952553
 C   -1.2944710962   -0.7969592348   -0.0207112501
 C   -2.3831206864    0.1751604852   -0.5142135775
 O   -2.8116649590   -0.7598664595   -1.5258293595
 C   -1.8369182406   -1.7347410499   -1.1100625110
 H    0.7140079873    1.5463685639   -0.0020339384
 H    0.8487678437   -1.1362070937   -0.2785522138
 H   -0.9081106253   -2.2140237689    1.6430848470
 H   -2.0178261329   -0.9113729080    2.1447068992
 H   -3.1814377063    0.4001138598    0.2047124860
 H   -2.0016768573    1.1064524082   -0.9485591634
 H   -1.1303281119   -1.9842532767   -1.9126777171
 H   -2.3058306092   -2.6583007104   -0.7446525678