18

 C    0.0251562783    1.5585633297   -0.0010789649
 C    0.0062244448    0.0195534190    0.0410180545
 C    0.7971216755   -0.5062470586    1.2528876785
 C   -1.4008410839   -0.5182716262    0.0216218372
 C   -1.9887751038   -1.3180769261   -0.9383732528
 N   -3.2626960058   -1.5487577416   -0.5329960965
 N   -3.5597471312   -0.9533352700    0.6357183947
 C   -2.4350645066   -0.3290274203    0.9737890480
 H    1.0533598528    1.9350306261   -0.0275445295
 H   -0.5020360409    1.9362509155   -0.8820242246
 H   -0.4623930884    1.9805351832    0.8845922681
 H    0.5076726245   -0.3435768691   -0.8656612198
 H    1.8289207011   -0.1392895525    1.2338288783
 H    0.3415153436   -0.1733838332    2.1919120364
 H    0.8211970203   -1.5998248196    1.2648033662
 H   -1.6011471062   -1.7290005640   -1.8577790096
 H   -3.9695431695   -2.0931258754   -0.9966575406
 H   -2.4021009445    0.2387227933    1.8926686966