21

 C    0.7635716253    1.0296816645    0.4289788815
 O    0.0214785671   -0.0687861722   -0.0736826346
 C    0.4986436777   -0.6032230891   -1.2779051018
 C    0.2735940254    0.2958263001   -2.4823141343
 C   -1.1804491894    0.7157843567   -2.5837819235
 O   -1.5536964439    1.8503972115   -2.7300676738
 C    1.7163397234   -1.4966725161   -1.2121728034
 C    0.3362253360   -2.0968228123   -1.4099403625
 C   -0.3097622323   -2.9188833051   -0.3173419631
 H    1.8301526518    0.7842908721    0.5248137629
 H    0.6604659819    1.9217849812   -0.2026872486
 H    0.3575616083    1.2550981131    1.4176096192
 H    0.8940080699    1.1970550757   -2.4554486544
 H    0.5338013258   -0.2566859008   -3.3947004674
 H   -1.9062750363   -0.1260532562   -2.5137998150
 H    2.4216531573   -1.4940583895   -2.0364149142
 H    2.1649798269   -1.6249470411   -0.2324468651
 H    0.1226769002   -2.4431153119   -2.4185271314
 H   -0.1249314929   -2.4764152174    0.6634422868
 H   -1.3947851915   -2.9757164101   -0.4556480125
 H    0.0828691993   -3.9412376632   -0.3180786747