22

 C   -0.0884766062    1.6367208415   -0.3107544762
 C   -0.0445964025    0.1659456178    0.1124132587
 C   -1.3954129023   -0.5410252397   -0.0396780163
 C   -1.3479652134   -2.0083053772    0.3857110848
 N   -2.6722794998   -2.6159858075    0.2584888171
 C   -2.9916178300   -3.2458100570   -1.0096662160
 C   -2.7661908766   -4.0871604005    0.2129999049
 C   -1.6037644124   -4.9278663707    0.3088112965
 C   -0.6482476231   -5.6488724197    0.4310638856
 H    0.8870012598    2.1173953804   -0.1871752597
 H   -0.3787909048    1.7377792730   -1.3624549634
 H   -0.8150777658    2.1984070816    0.2866677514
 H    0.7129312180   -0.3635335050   -0.4804648823
 H    0.2861976632    0.0957680830    1.1572044194
 H   -2.1592156170   -0.0250551062    0.5546596936
 H   -1.7264174362   -0.4796939980   -1.0853937574
 H   -0.5853934687   -2.5476502290   -0.1995078757
 H   -1.0508628656   -2.0837038675    1.4385386415
 H   -4.0021108603   -3.1011512068   -1.3825317289
 H   -2.2162563490   -3.2868732933   -1.7732846172
 H   -3.6399085742   -4.4736715799    0.7332325139
 H    0.1962324469   -6.2852326493    0.5281710256