14

 C   -0.0387675186    1.4844173473    0.0103101219
 C    0.0406093154   -0.0252965570    0.0017102245
 O    1.0919041506   -0.6261747318   -0.0121811419
 C   -1.2865743573   -0.7733096173    0.0116868444
 N   -1.0492258961   -2.1924045710    0.0026896154
 C   -2.0583549756   -3.0954025522    0.0044132748
 O   -3.2379525226   -2.8070974087    0.0153034214
 H    0.9659856099    1.9072440986    0.0026376683
 H   -0.5970802071    1.8408775880   -0.8623840629
 H   -0.5799620624    1.8318895736    0.8972818831
 H   -1.8680606009   -0.4677415393    0.8931434749
 H   -1.8856061750   -0.4597414144   -0.8551110062
 H   -0.0788282947   -2.4742021334   -0.0088200153
 H   -1.6850948157   -4.1382437824   -0.0049514723