18

 C   -0.0007533848    1.5236026149    0.0498345130
 C   -0.0129706187    0.0229788897    0.0067481924
 C   -1.1251514505   -0.7193205867    0.1084682106
 C   -1.1296144177   -2.1936492201    0.0349047016
 C   -0.7229147754   -2.9016170571   -1.2552032814
 C    0.2201967637   -2.8627577807   -0.0813388597
 N    1.3541084642   -1.9949207523   -0.0720960624
 C    1.3266379673   -0.6226914433   -0.1303109932
 O    2.3534385309    0.0275048889   -0.2547793437
 H    0.6312948624    1.8842819499    0.8674687103
 H    0.4295200836    1.9347897740   -0.8690562593
 H   -1.0106084329    1.9217087225    0.1775018183
 H   -2.0849503382   -0.2294161564    0.2593810507
 H   -1.8872931858   -2.6914720076    0.6313872821
 H   -1.2137481793   -3.8407567718   -1.4850541040
 H   -0.4884959349   -2.2748042669   -2.1080299132
 H    0.3831403040   -3.7853758624    0.4667132264
 H    2.2713931621   -2.3941206245   -0.2067442186