23

 C   -0.7232436227    1.2202898076   -0.0127394324
 C    0.0546196244   -0.0838641648   -0.1018298296
 C    1.3189649005   -0.1393438796   -1.0191877241
 C    2.1782445413   -0.6793242189    0.1636467651
 C    2.9545635909   -1.9608755677   -0.0329117830
 C    2.7981955356    0.4560313673    0.9930774384
 O    1.5711284176    0.6650975460    1.7267703979
 C    0.9393853914   -0.4898115878    1.1105009117
 C    0.4178056449   -1.4651607719    2.1341210782
 H   -0.0702137864    2.0322293291    0.3184347428
 H   -1.1478288046    1.4892386542   -0.9860450249
 H   -1.5503337074    1.1450105423    0.7019455861
 H   -0.6234222952   -0.9095589305   -0.3476683074
 H    1.2328571123   -0.8309986550   -1.8613578556
 H    1.6473721110    0.8304033241   -1.4064586508
 H    3.7885347568   -1.8098244910   -0.7295970336
 H    3.3739916239   -2.3285399841    0.9100862285
 H    2.3219258000   -2.7520442844   -0.4504688948
 H    3.6106803305    0.1378614967    1.6620499823
 H    3.1185815414    1.3531022322    0.4477421085
 H   -0.3879377484   -1.0041218795    2.7172223866
 H    0.0162241307   -2.3625972274    1.6524690525
 H    1.2059916414   -1.7647951169    2.8315676375