19

 C    0.0058800811    1.5201715806   -0.1196236503
 C    0.1646280971    0.0406131593   -0.0239424742
 O   -0.8099865358   -0.7455590755    0.6826690926
 C    0.5740902028   -0.8764161030    1.0546014249
 C    1.2010277809   -1.8663364372    0.0683645187
 C    0.7375286979   -0.9230133779   -1.0884555983
 C   -0.0666585420   -1.3523960188   -2.3263607767
 C    1.0808862055   -0.7002138885   -3.1212268340
 O    1.7960053456   -0.3839609911   -1.9033564082
 H    0.9246670544    1.9670876515   -0.5099723328
 H   -0.8139523023    1.7825033605   -0.7984208016
 H   -0.2148001523    1.9504037874    0.8607772212
 H    0.8266218101   -0.6774738255    2.0900084713
 H    2.2932397267   -1.8884466507    0.1077944656
 H    0.7988137790   -2.8825253151    0.0872490666
 H   -0.1632420999   -2.4316975112   -2.4539294626
 H   -1.0506508752   -0.8913375841   -2.4260528719
 H    1.6618115368   -1.3659791048   -3.7692237019
 H    0.8183364095    0.2039981341   -3.6830435586