15

 O   -0.0499818234    1.4071421338   -0.1530957358
 C    0.0118176155    0.0597906428    0.2660240531
 C   -1.3296057471   -0.6045416150    0.1438278112
 O   -2.3358997056   -0.3373637767    1.1666543863
 C   -2.9397278435   -1.5714990245    0.7815100676
 C   -2.9862716410   -1.6482508022   -0.7521522839
 C   -1.7519055162   -2.1264999304    0.1104468447
 C   -2.1391614837   -0.5005599477   -1.1736729705
 O   -1.9397418097    0.1066723315   -2.1928555487
 H   -0.4065182575    1.4072619886   -1.0516595301
 H    0.7363007936   -0.5281688365   -0.3217764329
 H    0.3463527774    0.0573627386    1.3077666798
 H   -3.6983919118   -2.0149122424    1.4127036713
 H   -3.6869972617   -2.2535429246   -1.3092285824
 H   -1.2280043055   -3.0697328452    0.0708085903