12

 N   -0.0543590221    1.3245756706    0.0102381119
 C    1.2706795633    1.7557377022   -0.0004447762
 N    2.1456520099    0.7765755757   -0.0147378342
 C    1.3710763718   -0.3679559994   -0.0129473502
 C    0.0452409283   -0.0346362036    0.0021210944
 O   -0.7926788423   -1.0786052466    0.0050560219
 C    0.0733308857   -2.1778059376   -0.0093386151
 C    1.3834555383   -1.8074839997   -0.0206433313
 H   -0.8785342824    1.8998737902    0.0214086576
 H    1.5040416342    2.8098772475    0.0029125419
 H   -0.4262924785   -3.1311740464   -0.0093102212
 H    2.2241170237   -2.4830232029   -0.0326839795