21

 C   -0.2782984357    1.6139390639    0.0581180540
 C   -0.2371413664    0.0845203725    0.0837263684
 C    0.8163951962   -0.4678744180    1.0654868341
 C    0.8874471406   -1.9596962758    1.1150078177
 C    1.8120032405   -2.8741678687    0.6630860582
 C    3.1083622203   -2.6283762798   -0.0404166590
 N    1.3950416508   -4.1619498075    0.9451756619
 C    0.2417193390   -4.0353764138    1.5537789217
 N   -0.1166790411   -2.7277031252    1.6829604839
 H    0.6883475216    2.0303572289   -0.2463875390
 H   -1.0340256808    1.9805052908   -0.6431808426
 H   -0.5152213405    2.0220925265    1.0472137257
 H   -1.2268429184   -0.3064401146    0.3536001694
 H   -0.0232362024   -0.3041421901   -0.9187152188
 H    1.8028055237   -0.0838972417    0.7840561636
 H    0.6141606301   -0.0645543784    2.0686979448
 H    3.9400299723   -3.0929558957    0.4999894517
 H    3.1002195442   -3.0606345781   -1.0473261873
 H    3.3198778877   -1.5598310765   -0.1356244787
 H   -0.3749404566   -4.8417723455    1.9229025826
 H   -0.9504493655   -2.3766922135    2.1234088876