15

 C    0.0444174927    1.4569891838   -0.0278091515
 C   -0.0534649390   -0.0236718421    0.0300549819
 N   -1.1230220620   -0.7612248586   -0.0392711454
 C   -0.6520724387   -2.0537830077    0.0645623991
 O   -1.4385410384   -3.1555451772    0.0389612746
 C   -2.7889255602   -3.0092152863   -0.0975412899
 N   -3.4969877653   -4.0504259377   -0.1183357133
 C    0.6959351496   -2.0499089875    0.1939075880
 O    1.0863525806   -0.7313434515    0.1716571407
 H    0.6661460490    1.7759694371   -0.8705338623
 H   -0.9551873288    1.8759560177   -0.1430864174
 H    0.4970854132    1.8557209437    0.8857347295
 H   -3.1027755120   -1.9677744998   -0.1750244030
 H   -4.4768164466   -3.7941049892   -0.2242041427
 H    1.4582913659   -2.7984325045    0.3011077517