15

 N    0.1247762542    1.3983404709    0.1713793161
 C   -0.0086615333    0.0143361202    0.0305105285
 C   -1.1387166287   -0.7829709283   -0.0319736104
 C   -0.6839043792   -2.1231792613   -0.0572922884
 O   -1.4971115516   -3.2015726256   -0.1396911318
 C    0.7039077215   -2.1296967008   -0.0222834258
 N    1.0958755568   -0.7810943102    0.0145930903
 C    1.5807080432   -3.2171075253   -0.0550607749
 C    2.3045821546   -4.1864058665   -0.0710615182
 H    0.7394214725    1.8128479511   -0.5206751632
 H   -0.7727815656    1.8628992776    0.1355721559
 H   -2.1624485232   -0.4492618845   -0.0843108476
 H   -0.9414989973   -3.9910895368   -0.1493429717
 H    2.0221532074   -0.4738658950    0.2559395495
 H    2.9445266686   -5.0323372655   -0.1029410484