19

 C    0.0135272114    1.5319610811   -0.0181580535
 C   -0.0154953515    0.0265339706   -0.0514584829
 C   -1.1737814276   -0.6772674710   -0.0547206877
 N   -2.4154159861   -0.0775195441   -0.0684644952
 C   -1.1796554161   -2.1857025248   -0.0490976828
 C    0.0973065176   -2.7285748162   -0.6859153911
 N    1.2423284004   -2.0556856670   -0.1005244017
 C    1.2841226904   -0.6724275007   -0.0131482492
 O    2.3529612081   -0.0919371757    0.1224193821
 H    1.0518382910    1.8647816075    0.0105546741
 H   -0.4707853141    1.9735545807   -0.8984156820
 H   -0.4922096628    1.9381056762    0.8699455325
 H   -2.4628136674    0.8861692427    0.2255187619
 H   -3.1966776363   -0.6352122466    0.2388233419
 H   -1.2634416134   -2.5422177693    0.9872023055
 H   -2.0531026161   -2.5610803639   -0.5939733093
 H    0.1842232205   -3.8041701723   -0.5053637583
 H    0.0468136112   -2.5784336558   -1.7769743613
 H    2.1551995907   -2.4573443813   -0.2587202130