20

 N   -0.0542997049    1.4812711597    0.0993202212
 C    0.0351240402    0.0355491718   -0.0696781420
 C    0.8025532676   -0.5463750226    1.1306116079
 C    0.7176251113   -2.0276682776    1.1426814214
 N    0.7126745053   -3.1841458907    1.1484663642
 N    2.1714006717   -0.0615938822    1.1438900713
 C    3.1811108399   -0.5971556469    0.1957850751
 C    4.2433141472   -0.4546629434    1.3129167441
 C    3.0513850617   -0.3629433108    2.2959464392
 H    0.8864925120    1.8550060252    0.1835612601
 H   -0.4779941912    1.9048468067   -0.7193035896
 H   -0.9735254521   -0.3905484284   -0.0835510322
 H    0.5373604729   -0.2985522320   -0.9940565103
 H    0.3156985129   -0.1761272516    2.0408586341
 H    3.0032609571   -1.6473500793   -0.0766659005
 H    3.3095409760   -0.0065229573   -0.7162103442
 H    4.9313398039   -1.2886980779    1.4473145590
 H    4.8061718455    0.4775549427    1.2441204749
 H    3.0690819267    0.4137889361    3.0666904837
 H    2.8295302662   -1.3327028114    2.7652099027