18

 C   -0.2006245345    1.5543033338   -0.0968661996
 C   -0.0043364493    0.0595724500    0.0160508066
 C    1.3274652741   -0.6177271742   -0.2149164248
 N    2.5257482388    0.1497810050   -0.3767005262
 C    3.0506166138    0.8992398495    0.6249655729
 C    2.5618533539    0.9401166404    1.8918997172
 C    1.3971247955    0.1645726756    2.2796039765
 O    0.9846672784    0.0775276624    3.4264491119
 C    0.7168970511   -0.6147110044    1.1773372943
 H    0.6527503280    2.1145820606    0.2883070318
 H   -0.3548577071    1.8448429172   -1.1420106853
 H   -1.0839901587    1.8658558043    0.4696846722
 H   -0.8480058380   -0.5223339373   -0.3463830382
 H    1.3423233341   -1.5465083230   -0.7771012031
 H    2.8921570270    0.2613561140   -1.3063222460
 H    3.9272232284    1.4748292903    0.3415772596
 H    3.0641738716    1.5236449633    2.6519608863
 H    0.2760571129   -1.5351419176    1.5438431940