17

 C   -0.0378549136    1.5373182878   -0.2097368706
 O    1.2295253916    2.0584196212    0.1838457223
 C    2.0040222576    1.0398695962    0.8308606831
 C    1.7525890162    1.0883930787    2.3451137028
 C    0.3609845249    0.4297908987    2.4652316995
 N    0.2515230349   -0.5289580742    1.3365876344
 C    0.0165500140    0.0369378102   -0.0100899209
 C    1.3885528196   -0.3028296798    0.4258127783
 H   -0.8401735230    2.0158681099    0.3709906829
 H   -0.2116773201    1.7689348495   -1.2687122871
 H    3.0493516567    1.1771078440    0.5448438319
 H    2.5044210451    0.4855090397    2.8673213986
 H    1.7959903314    2.1083885077    2.7337917191
 H    0.2437231359   -0.1298660722    3.3967036879
 H   -0.4447269206    1.1708817769    2.4282885420
 H   -0.5765248638   -0.5932672010   -0.6663112144
 H    1.9789707633   -1.1469495033    0.0868501299