11

 O   -0.0654032039    0.1068435716   -0.0580377832
 C    0.0382823418    1.2817868344    0.0200644821
 O   -0.9861311723    2.2140594376    0.2174863567
 C   -0.0414591614    3.3035616773    0.0445728975
 C    0.9680446282    3.2580878076    1.1424677893
 C    1.1211486466    2.3307911335   -0.0630924180
 C   -0.4105185155    4.4172916470   -0.7612680349
 N   -0.6938206481    5.3370236191   -1.4021043055
 H    1.6861562230    4.0711065878    1.1717569301
 H    0.6576052627    2.8635982826    2.1040229649
 H    1.9839685088    2.3337230716   -0.7121945489