17

 C   -0.0540681930    1.4036656908    0.1708344855
 O    1.3951807748    1.5207289726    0.0810310520
 C    1.5363481732    0.1119450406    0.0432128849
 C    2.6009732238   -0.6877691830   -0.6969982772
 O    2.5798904567   -1.6708696243    0.3697355470
 C    1.8976165025   -0.7572418063    1.2656337610
 C    0.5774004927   -1.2521038430    1.8365115863
 O   -0.4190107970   -1.0624616506    0.8212817152
 C    0.0303903686   -0.1227464090   -0.1197121841
 H   -0.4273098000    1.6549661162    1.1701088762
 H   -0.5523909402    2.0233263387   -0.5803848845
 H    2.3375838183   -1.1175014195   -1.6690324353
 H    3.5710059570   -0.1776012214   -0.7639507318
 H    2.5769500088   -0.3349053331    2.0135067787
 H    0.5963914725   -2.3145302287    2.0962225506
 H    0.3248292801   -0.6733860167    2.7367880722
 H   -0.3440888089   -0.4104067433   -1.1042906269