21

 C    0.1103205117    1.6353628092    0.0821030123
 C    0.0750583802    0.1158214881    0.0465653971
 C    1.0514061674   -0.6300573275   -0.9045477916
 C    1.3163555056   -1.6867129236    0.2229208024
 C    2.7865536358   -2.0623375898    0.4628010616
 O    2.9654585418   -2.8439384617    1.6251421891
 C    0.6810849013   -0.6737683117    1.2387944042
 C    0.5257474629   -2.9001151106    0.0717028905
 C   -0.0855415662   -3.9327206501   -0.0293020156
 H    1.1270131958    2.0010239671    0.2672470639
 H   -0.2309160787    2.0643214347   -0.8667643015
 H   -0.5343307324    2.0294879498    0.8756904907
 H   -0.9478396318   -0.2281545420   -0.1389560907
 H    0.6601267404   -1.0050086498   -1.8517203871
 H    1.9571501711   -0.0453574960   -1.1003528473
 H    3.1809647923   -2.5658375972   -0.4348006644
 H    3.3677788905   -1.1469357135    0.6153964414
 H    2.4092328567   -3.6261655288    1.5254258871
 H    1.4652779388   -0.1091979546    1.7528777850
 H   -0.0047199184   -1.0827185727    1.9819106749
 H   -0.6465514946   -4.8286718993   -0.1320792620