21

 C   -0.0569054345    1.5655294347    0.1555612405
 C    0.0556317386    0.0703218350    0.0613973359
 C   -0.8544303117   -0.8650868326    0.8184833397
 C    0.6293342614   -0.9513070867    1.0492426359
 C    1.2764166831   -1.7289176774   -0.0996308570
 C    0.6742749563   -0.7092258989   -1.1129141594
 C   -0.1503643920   -1.1115294297   -2.3532345148
 O    0.7367332044   -0.3956968740   -3.2371324328
 C    1.5903855530   -0.0137968085   -2.1418237352
 H    0.9016399996    2.0605691752   -0.0354844638
 H   -0.7828874111    1.9602448812   -0.5658957733
 H   -0.3898210396    1.8667249254    1.1541614779
 H   -1.4278131966   -0.3992839752    1.6141436564
 H   -1.3792456179   -1.6736737865    0.3126573082
 H    1.0690565347   -0.7830252719    2.0251922452
 H    2.3692852821   -1.6865244179   -0.0925110927
 H    0.9681389399   -2.7749056630   -0.2122857878
 H   -0.1717729791   -2.1865897618   -2.5777706355
 H   -1.1755999637   -0.7197168759   -2.3892194283
 H    1.6816217576    1.0765675610   -2.0558599981
 H    2.5964452955   -0.4466098824   -2.2321222210