17

 C   -0.0079419113    1.4210377452    0.0192239304
 N    0.0381913610   -0.0299580039   -0.0342743802
 C    0.1203915061   -0.7073360894    1.2462242568
 C    0.0063243136   -0.7110238940   -1.2107361554
 N    0.0536663747   -2.0620297448   -1.1666324363
 C    0.0192153309   -2.6626268202   -2.3411821153
 C   -0.0602831361   -1.9388441790   -3.5294823117
 N   -0.1039083225   -0.6068345333   -3.5069923636
 N   -0.0713351566    0.0227040614   -2.3518142849
 H    0.8910981986    1.8104153258    0.5142664955
 H   -0.0681415508    1.8225695040   -0.9889182631
 H   -0.8813702355    1.7510455313    0.5964382213
 H   -0.7482155741   -0.4532920846    1.8677507993
 H    0.1493891986   -1.7829550669    1.0917299503
 H    1.0237812282   -0.3936962846    1.7855053475
 H    0.0556628708   -3.7507378707   -2.3419370800
 H   -0.0897286355   -2.4111517964   -4.5041162006