17

 N    0.0024280277    1.2792677938   -0.1944781455
 C   -0.0317938056   -0.0815307075   -0.0254314894
 N   -1.1086020587   -0.7774869338   -0.0650898251
 C   -0.8016200631   -2.1736601385    0.2411262367
 C    0.7342366081   -2.3064452468    0.3651784697
 O    1.1885349352   -3.1547895578    1.3833928809
 C    1.5435605161   -2.5085025098   -0.9322868736
 O    1.9968276228   -1.1315599106   -0.9326630098
 C    1.2433625594   -0.8421762406    0.2687681380
 H    0.8568636773    1.6549786010   -0.5773537105
 H   -0.8368478291    1.6753855660   -0.5945689199
 H   -1.2864851364   -2.4712581372    1.1843975284
 H   -1.2142492962   -2.8318223780   -0.5332936434
 H    0.6383967011   -3.0192348556    2.1624446039
 H    2.3763209196   -3.2094205653   -0.8155332748
 H    0.9661115005   -2.7540996290   -1.8306237949
 H    1.8700993514   -0.4200988603    1.0614405591