17

 C    0.0621150166   -1.2421348934    0.0709484100
 C    0.0435182703   -0.0408532373    0.0583844797
 C   -0.0174189327    1.4155668773    0.0318353332
 C   -0.6832030789    2.0414572491    1.2521490295
 C    0.0222805271    3.0463007637    1.7669420483
 C    1.3241485967    3.2679985651    1.0494001570
 C    2.5470461739    2.5519636957    1.6734022750
 O    2.3828284386    1.4289356226    0.7811575424
 C    1.3730928044    2.1111226206    0.0171137620
 H    0.0978998034   -2.3031554441    0.0870091576
 H   -0.5680579265    1.7130417665   -0.8742970902
 H   -1.6366416577    1.6811191869    1.6199023576
 H   -0.2773956805    3.6372195035    2.6258653424
 H    1.4855123749    4.2933030812    0.7093260318
 H    3.5062718284    3.0607513831    1.5106986019
 H    2.4618329758    2.2587017649    2.7255212642
 H    1.7193881860    2.3304130346   -0.9982757424