18

 N    0.0580802552    1.2269726124   -0.3842352526
 C    0.0540075530    0.0263298764   -0.0398740344
 O    1.1514525860   -0.8386109884    0.2668808256
 C    0.1656099238   -1.6638739760    1.0355284884
 C   -0.6680403841   -2.9978305113    1.0175863476
 C   -1.8905073736   -1.9401436006    1.1381591270
 C   -0.9361592699   -1.1090298696    0.2018701834
 C   -0.9418309586   -2.0130997684   -1.0771984647
 C   -0.7481648531   -3.4194306390   -0.4451042665
 H    1.0099647541    1.5926549208   -0.4482873352
 H    0.1974451111   -1.2757978607    2.0563815385
 H   -0.5196807431   -3.7633770174    1.7801315613
 H   -2.8489495982   -2.2720540042    0.7312506331
 H   -2.0130153433   -1.5350882239    2.1420755031
 H   -1.8930526093   -1.9006567227   -1.6040099814
 H   -0.1403699406   -1.7533068914   -1.7693584585
 H    0.1671616654   -3.9102419674   -0.7848894983
 H   -1.5846732549   -4.0980493286   -0.6326619562