13

 N   -0.0160648637    1.3332539133    0.0078813828
 C    0.0022017257   -0.0140799715    0.0008983446
 N   -1.1944895249   -0.6388387284    0.0046586319
 C   -1.1595193076   -1.9595010193   -0.0022599147
 C    0.0384954899   -2.6910061896   -0.0129229159
 C    1.2162365016   -1.9272212336   -0.0158566935
 N    1.2153893513   -0.6060949391   -0.0091327745
 C    0.0577524142   -4.1118019129   -0.0202639995
 N    0.0734540669   -5.2703755698   -0.0262484080
 H    0.8507712036    1.8400936997    0.0054765416
 H   -0.8963214982    1.8163560385    0.0154755597
 H   -2.1158575152   -2.4769756935    0.0006469674
 H    2.1862521164   -2.4185205738   -0.0239790221