17

 C   -0.2394127707    1.4357113122    0.0348934971
 N    0.0298467621    0.0023551592    0.0519711495
 C    1.1935616095   -0.4810583558   -0.8109092562
 C    2.1803902275   -0.0464766696    0.3238183527
 C    0.9424587917   -0.5015127263    1.1584830313
 C    0.9097057293   -2.0035061039    0.8032974388
 C    1.0795715567   -1.9785191321   -0.5291384760
 C    0.7234746747   -3.0779095763    1.6950072106
 N    0.5761386198   -3.9404891506    2.4555994747
 H    0.6314349916    2.1016253838    0.1481068149
 H   -0.7317334951    1.6828894301   -0.9112667160
 H   -0.9443053346    1.6626967370    0.8412949377
 H    1.2575102885   -0.1351262932   -1.8413894772
 H    3.1163813028   -0.5974045037    0.4396477595
 H    2.3629651313    1.0286480115    0.3576758988
 H    0.7441137385   -0.1992681136    2.1853734526
 H    1.1099791562   -2.7915046188   -1.2385000727