19

 C    0.5096898868    0.6870971263   -1.0387633054
 C    0.2248650325   -0.5803904792   -0.3883295690
 C   -0.0282985926   -1.6316342127    0.1488833012
 C   -0.3390884533   -2.8783382061    0.8216449558
 O   -1.4589954030   -3.1256959895    1.2189757049
 C    0.8125030730   -3.8653095365    0.9714078846
 C    1.0362921037   -4.6435283831   -0.3156015276
 C    1.9014914707   -4.0864562499   -1.4183043215
 C    2.3804336745   -5.2630016802   -0.6052726010
 H    1.5705140673    0.9480696023   -0.9641832823
 H    0.2507623765    0.6390065601   -2.1023536174
 H   -0.0746163809    1.4985187384   -0.5921109263
 H    1.7282636012   -3.3260383417    1.2394173129
 H    0.5517184428   -4.5459697389    1.7879650253
 H    0.1687341223   -5.2158377293   -0.6320365171
 H    1.5975270893   -4.2563435870   -2.4450484502
 H    2.3760099514   -3.1258260752   -1.2507579870
 H    3.1793649764   -5.0950808824    0.1096315764
 H    2.4028275414   -6.2412550452   -1.0724876163