15

 C    0.1085634533    1.3463466019   -0.0661700440
 N    0.0231630816   -0.0944729123   -0.2076472547
 C   -1.0893806424   -0.6257057007    0.0160779806
 O   -1.1990499144   -1.9910498600   -0.1105288605
 C   -2.4226701218   -2.5637705251    0.1360728850
 O   -3.4080372104   -1.9671104460    0.4542268989
 C   -2.2890467036   -4.0599469219   -0.0669353167
 O   -3.5316404764   -4.6597437031    0.1805431483
 H    0.8726841840    1.5896346428    0.6799145353
 H    0.4397463656    1.7817617171   -1.0151004582
 H   -0.8368983302    1.8260437073    0.2296347760
 H   -2.0205618378   -0.1362485009    0.3091328327
 H   -1.9241914952   -4.2190961737   -1.0941734041
 H   -1.4924130969   -4.4113820656    0.6080283734
 H   -3.4352137356   -5.6072905598    0.0491008479