16

 N   -0.3279717330    1.2596665872    0.0562837202
 C   -0.1710613770    0.0184035164    0.0270452163
 O    0.9963135354   -0.7429776491   -0.1084510846
 C    0.1946715436   -1.9478505181   -0.2185331939
 C   -0.5431772629   -2.1977708136    1.0499765655
 C   -0.0205178609   -1.8473602897    2.4034590752
 C   -0.7401179049   -2.2400271840    3.6207111002
 O    0.4210467028   -2.9556024838    3.1948664153
 C   -1.0777087047   -1.1690552655    0.0359746518
 H    0.5651726742    1.7494062484   -0.0195861925
 H    0.4730947993   -2.6600636603   -0.9828079801
 H   -1.1268450170   -3.1159392693    1.0331978555
 H    0.6315784789   -0.9776436403    2.4457891423
 H   -0.6238764736   -1.6513992774    4.5293062844
 H   -1.6809969642   -2.7830106651    3.5375072616
 H   -2.0651996960   -1.2278066359   -0.3966738871