17

 C   -0.1116577569    1.3855013140    0.1079479491
 N    0.0594157719   -0.0397816229   -0.0389364006
 C   -0.1675456554   -0.7980555646   -1.1515896913
 C    0.0298345207   -2.1062906762   -0.7755959941
 C    0.1157939628   -3.5450975528   -1.1822659173
 C    0.3064100585   -4.2132845615    0.2250347935
 O    0.6557016123   -3.1814638385    1.1881901728
 C    0.3704310238   -2.0090904847    0.5787322445
 N    0.3926567340   -0.7851884504    1.0629694680
 H    0.7647664204    1.8141971398    0.6005032461
 H   -0.2212794741    1.8318638935   -0.8825195401
 H   -0.9986055444    1.6198859586    0.7067574783
 H   -0.4429284688   -0.3347173719   -2.0862765472
 H   -0.7761739258   -3.9384035633   -1.6790821055
 H    0.9700449109   -3.7486490683   -1.8390739914
 H   -0.6244513690   -4.6824430894    0.5622120792
 H    1.1027686391   -4.9600357013    0.2421062962