19

 C    0.2323981684    1.5428655373   -0.0529106021
 C    0.0821467429    0.0276818381   -0.0371642638
 O    0.7072427606   -0.4928419598   -1.2035604207
 C    0.6793622022   -1.9072316937   -1.2771069499
 C    1.5106787619   -2.5244224992   -0.1697819622
 C    2.7255981146   -1.7832200859    0.2745580058
 C    1.4787999156   -1.7885373130    1.1621191592
 C    0.6113261652   -0.5868277879    1.2709775314
 O    0.2514417932   -0.1425382398    2.3401979165
 H    1.2902182230    1.8202202898   -0.0828645129
 H   -0.2607238192    1.9630037240   -0.9325492752
 H   -0.2143957243    1.9588398960    0.8516405620
 H   -0.9928849440   -0.2315056066   -0.0554929737
 H   -0.3587780218   -2.2773520953   -1.2305047963
 H    1.0851907159   -2.1664038339   -2.2604675681
 H    1.5166786726   -3.6095347378   -0.1323796036
 H    3.5705434777   -2.3436987655    0.6568355151
 H    2.9749923723   -0.8662995816   -0.2446465471
 H    1.5467857631   -2.3533950552    2.0849034855