18

 C   -0.1470608637    1.4270219396   -0.0545643060
 C    0.0650191994   -0.0699582917   -0.0466496936
 C    1.4672166387   -0.6492962819   -0.0978762362
 C    0.6650823149   -0.7248988973    1.1660176221
 O    1.0121424728    0.0042582150    2.3554553717
 C    0.5620283500   -1.0861983511    3.2044751868
 C    0.2055964034   -1.8808230783    1.9697728310
 N   -0.2680460111   -3.0117614998    1.6644829722
 O   -0.5592359791   -3.7600713612    2.8195848031
 H    0.6081937182    1.9313388145    0.5542282115
 H   -0.0903952850    1.8253731836   -1.0730532740
 H   -1.1283560963    1.6863066011    0.3559340160
 H   -0.7054621898   -0.6577551755   -0.5395473858
 H    1.6446131957   -1.5700885439   -0.6432196574
 H    2.2957211285    0.0523851601   -0.0896204547
 H    1.3700636539   -1.4987311946    3.8189015861
 H   -0.2800576173   -0.7995551820    3.8446380656
 H   -0.9024381132   -4.5808745165    2.4504160917