16

 O   -0.4531424411    0.5072555623   -0.7368882700
 C    0.0503555997    1.0579672685    0.2159214012
 C    1.2141268215    1.9600493776    0.1210867898
 C    1.7086019597    3.1375985619    1.0019757413
 C    3.1018559689    2.7361350796    0.7042984407
 C    2.7235388841    1.3908100204    0.0637083283
 C    2.7388785667    1.6267098623   -1.4631585110
 C    1.7208890956    2.7286446697   -1.1387970321
 N    2.3968556390    3.7143350096   -0.1917982431
 H   -0.3379610841    0.8891722299    1.2465223268
 H    1.2612441300    3.7368842234    1.7857479122
 H    4.0383287311    3.0415616736    1.1528997117
 H    3.0212350606    0.4606542781    0.5428407541
 H    3.6829387841    1.9085718715   -1.9365991774
 H    2.2607967033    0.8052595175   -2.0022106039
 H    1.0771405309    3.2023195440   -1.8766139786