19

 C    0.1053913041    1.4835527835   -0.0672727042
 C    0.0485089716    0.0298911220   -0.0120539218
 C    0.0016866692   -1.1722008786    0.0261820553
 C   -0.0722151360   -2.6255916495    0.0838733826
 C   -1.5237666435   -3.1659273011    0.0581415526
 O   -2.2110303577   -2.7816452435   -1.1116915259
 C   -1.5178032963   -4.6818114956    0.1963400697
 C   -2.6084152378   -5.5017419869   -0.3357059831
 O   -1.3644018628   -5.3816216788   -1.0469086129
 H    0.9200175724    1.8261051225   -0.7151773005
 H   -0.8275068293    1.9018006524   -0.4613562445
 H    0.2689406937    1.9169574724    0.9257719610
 H    0.4742147192   -3.0712214254   -0.7588212505
 H    0.4215912823   -2.9900163425    0.9953974581
 H   -2.0741851781   -2.7291915930    0.8998119540
 H   -1.8790453045   -3.3590177117   -1.8135274647
 H   -0.9167080907   -5.0835199924    1.0129827336
 H   -2.7999494498   -6.4847334734    0.0898353427
 H   -3.4542666663   -5.0086121305   -0.8072834414