19

 C   -0.2002744214    1.5402278969   -0.0503290909
 C   -0.0984507877    0.0066086047   -0.0233147129
 C    0.8427292823   -0.4248240073    1.1194722645
 C   -1.4909747913   -0.6169819583    0.1816062418
 C    0.4796234169   -0.5448053837   -1.3233531950
 C    0.4315241059    0.1236865193   -2.6299053759
 O    1.6411518220    0.0869903199   -1.8656190776
 H    0.7561296925    1.9857102432   -0.3380319102
 H   -0.9669049107    1.8832889333   -0.7525240010
 H   -0.4710955927    1.9195521118    0.9399641302
 H    0.4585075857   -0.0873339445    2.0876797792
 H    0.9426937475   -1.5151263219    1.1605152984
 H    1.8414471757   -0.0000801056    0.9799372790
 H   -2.1753834121   -0.3349134029   -0.6255997634
 H   -1.4384341524   -1.7111273471    0.2117205706
 H   -1.9286967853   -0.2800680173    1.1270609536
 H    0.5402715149   -1.6366320991   -1.3376859818
 H    0.4372158352   -0.4748915324   -3.5401210493
 H   -0.0239894853    1.1063341510   -2.7281016692