11

 N   -0.0064447019    1.3958429959    0.1371700286
 C   -0.0541769182    0.0275594519    0.0396749200
 C   -1.1757640846   -0.7396520984    0.0098252806
 O   -1.1507851560   -2.0771060887   -0.0283890269
 N    0.1246033881   -2.7650223681   -0.0387910342
 N    1.1533072782   -2.0914481341   -0.0242995416
 C    1.2204908445   -0.6629462860    0.0016412178
 O    2.2969964193   -0.1032042465   -0.0167270769
 H    0.9014233805    1.7759870741   -0.0937804369
 H   -0.7944814207    1.9271012559   -0.1978615535
 H   -2.1891198391   -0.3492103260    0.0164429232