21

 C   -0.0475733808    1.4543067029    0.0419760730
 C    0.0630680710   -0.0537659775    0.0372680135
 C    0.7021373173   -0.6991731613   -1.2020844208
 C    0.7288562337   -2.2072615399   -0.8237364272
 C    0.4347030739   -2.1855750019    0.6808455576
 C   -1.0044407615   -1.7187070338    1.0762360905
 C   -0.3800359591   -0.9660364917    2.2722180106
 C    0.7549465439   -0.7588219180    1.2404757894
 O   -1.2651609854   -0.6616277191    0.1407539722
 H    0.9373486794    1.9148366876   -0.0873763882
 H   -0.6919656336    1.7919534990   -0.7758264725
 H   -0.4790531575    1.8138035105    0.9805610919
 H    0.1133385707   -0.4896989983   -2.0989411735
 H    1.7136326986   -0.3070992967   -1.3625727066
 H   -0.0257325460   -2.7789148459   -1.3721868689
 H    1.6995262777   -2.6651866239   -1.0346662145
 H    0.8063711721   -3.0233408448    1.2711257690
 H   -1.8684044276   -2.3798296119    1.1446647170
 H   -0.9258602092   -0.0974305836    2.6484063454
 H   -0.0774261361   -1.6213032771    3.0920453916
 H    1.7593898885   -0.4258252746    1.5023586605