16

 O    0.1686223560    1.4789809184    0.2059461782
 C    0.0812430643    0.0947605847   -0.0136804876
 C   -1.3548843816   -0.5790964477    0.0794319097
 N   -1.1767598142   -0.9513373895   -1.3371581026
 C    0.1000832874   -0.4340181640   -1.4399930787
 C    0.6869817834   -0.9294542380   -2.5792131582
 C   -0.2993976915   -1.7791447313   -3.1821049777
 C   -1.4191817440   -1.8055783901   -2.3590571724
 O   -2.6124613439   -2.4445823769   -2.4431673505
 H   -0.2455693487    1.9169212679   -0.5462541063
 H    0.8026408575   -0.3626220696    0.6688460765
 H   -1.4248303515   -1.4359168487    0.7552537601
 H   -2.1818120669    0.1131322698    0.2580369599
 H    1.6763243687   -0.7320245731   -2.9614482234
 H   -0.2150154625   -2.2820298728   -4.1348055048
 H   -2.6021354525   -3.0001883593   -3.2285031622