16

 O    0.3733351660    0.8305459852    0.8224321110
 C   -0.0409504183   -0.2425753961    0.0137018501
 C   -1.5802860702   -0.2751419895   -0.1055053358
 C   -2.0615883720    0.2294632606   -1.4680658523
 N   -1.4140716926   -0.5409945916   -2.5305871680
 C   -0.0681467589   -0.7518761853   -2.5766587689
 O    0.5215003353   -1.3330345042   -3.4613352992
 C    0.6451052678   -0.1406646663   -1.3550551288
 O    1.7005003425    0.4341657109   -1.4668247117
 H    1.2424074747    1.0945613950    0.4836622396
 H    0.3006229707   -1.2052005732    0.4383381606
 H   -1.9393965230   -1.2990693265    0.0327797590
 H   -1.9904318464    0.3386321609    0.6999961490
 H   -3.1415637182    0.0997628370   -1.5677136325
 H   -1.8526590417    1.3026969405   -1.5759131067
 H   -1.9361703354   -0.8204026875   -3.3486962253