21

 C   -0.2097025255    1.4023395991    0.1503698135
 C    1.2078668468    0.8689421039   -0.0056750362
 C    2.1857579350    0.8081461103    1.1549440573
 C    1.6066329020    0.2254359066    2.4523548409
 C    0.7502669010    1.1417142403    3.3810114080
 C   -0.4509554633    0.1599609413    3.2601211071
 C    0.3875162694   -0.7504231542    2.3127599318
 O   -0.1358958233   -1.0153919146    1.0262259030
 C    0.0450034711   -0.0785449858    0.0026773097
 H   -0.5156778795    1.7955475368    1.1101049790
 H   -0.6520546083    1.9200832881   -0.6945191306
 H    1.6798449282    1.0517145696   -0.9670209351
 H    3.0267730306    0.1792569462    0.8365375609
 H    2.6087726803    1.8007161257    1.3590006503
 H    2.4202012389   -0.2488275061    3.0072280233
 H    1.1506843397    1.2542813442    4.3911821365
 H    0.5689388017    2.1440783679    2.9844577232
 H   -0.7423973612   -0.3261397662    4.1944458083
 H   -1.3513209366    0.5659041750    2.7954154737
 H    0.5795045961   -1.7407074374    2.7339592622
 H   -0.2550943133   -0.5423859909   -0.9309489971