16

 O    0.0056098500    0.0613728003   -0.3477979276
 C   -0.0204856106    1.2109040911   -0.0373560921
 C   -1.1387050057    2.1842047614    0.3782099712
 C   -0.0471588921    3.2224055331    0.6900205866
 C   -0.1441768187    4.6943953055    0.6499480875
 N    0.0865112899    3.9782364814    1.9222622531
 C    1.0856949481    2.3037535573    0.1420397343
 C    2.2218271545    1.9922733617    0.9748390416
 C    3.1554928667    1.7135533029    1.6780127916
 H   -1.8245718187    2.4364977536   -0.4370121920
 H   -1.7264287884    1.8336750040    1.2332046538
 H    0.6988465222    5.2880680862    0.3062111426
 H   -1.1197567744    5.1371070687    0.4626502972
 H   -0.7725940595    3.9294181330    2.4649230853
 H    1.4105339734    2.6370896440   -0.8533935620
 H    3.9806134833    1.4737185059    2.3017183189