19

 C    0.0706462223    1.6516164684    0.0804031556
 C    0.0453979999    0.1193699364    0.0912768321
 C    0.6112652966   -0.4805211027   -1.1861280572
 C    0.4482732706   -2.0104387031   -1.4750142255
 O   -0.3624750088   -2.7930762440   -0.6219985019
 C   -0.2501856692   -1.6069145447   -2.7607290198
 C   -1.4018525931   -0.7320391322   -2.4752303987
 N   -0.0615318296   -0.1180179438   -2.4945554595
 H    1.0935974611    2.0301251706   -0.0214688695
 H   -0.5099597084    2.0452996086   -0.7589719374
 H   -0.3477384818    2.0596729521    1.0054332464
 H    0.6413907712   -0.2569415205    0.9341931813
 H   -0.9732160346   -0.2414632289    0.2653146010
 H    1.6610591094   -0.1856245820   -1.2903409286
 H    1.4146195240   -2.4972937072   -1.6547974090
 H    0.1561308167   -3.0304403919    0.1533813111
 H   -0.0676962751   -2.0397516420   -3.7383020695
 H   -2.0074186577   -0.4233022061   -3.3216311106
 H   -1.9475741736   -0.8448311570   -1.5443709003