14

 C   -0.0295733216   -1.2258217666   -0.0042022485
 C   -0.0348628273   -0.0243489735    0.0023666708
 C   -0.0063710242    1.4323034186    0.0103282074
 C    1.4284337448    1.9945636628   -0.0012507639
 C    1.4260610202    3.5354977220    0.0075135351
 C    2.7746047577    4.0970898986   -0.0029157549
 N    3.8475391245    4.5258294375   -0.0118575752
 H   -0.0366796454   -2.2876611375   -0.0097714010
 H   -0.5572070597    1.8151259371   -0.8592693942
 H   -0.5391506389    1.8051961863    0.8953501931
 H    1.9761041008    1.6225356533    0.8693027375
 H    1.9580506425    1.6324550061   -0.8870243077
 H    0.8829622882    3.9202959716   -0.8640277318
 H    0.9009393584    3.9103338836    0.8942614033