13

 C   -0.0269990951    1.5327667088   -0.0848838959
 C   -0.0219875512    0.0347415775    0.0923888965
 O   -0.0363662027   -0.5449161443    1.1415584448
 N    0.0021675401   -0.7047973584   -1.1293049956
 N    0.0191041994   -0.0674333313   -2.3498448112
 N    0.0390279250   -0.9415527739   -3.2631625784
 N    0.0357848833   -2.1652419900   -2.6858649930
 C    0.0123737583   -2.1108256602   -1.2972941073
 O    0.0038520978   -3.0072630729   -0.5005983064
 H    0.8589613171    1.8609386001   -0.6348639678
 H   -0.8966858919    1.8516177420   -0.6654377164
 H   -0.0465801302    1.9846440997    0.9059620917
 H    0.0497379901   -2.9969969671   -3.2525822009