16

 N   -0.2348575952    1.1844344642    0.3077408847
 C   -0.0660775034   -0.0792484191   -0.1533199426
 O    1.0448105299   -0.5190755757   -0.4479330330
 C   -1.2986100120   -0.9054605102   -0.2593225241
 C   -1.4182174644   -1.8660496196   -1.4242430451
 C   -1.0986984807   -2.4314297118   -0.0693438363
 O    0.1388415474   -2.9557442644    0.2356233466
 C   -2.2022997324   -3.1221029815    0.6619915119
 O   -3.3696453511   -2.8335561743    0.5561122337
 H    0.5774604791    1.7717413862    0.4042061033
 H   -1.1405103109    1.5625319815    0.5219759159
 H   -2.2240902029   -0.5027891404    0.1380448340
 H   -2.4157779700   -2.0311232843   -1.8145963292
 H   -0.6029042340   -1.8622666601   -2.1390726004
 H    0.8008026134   -2.2884718192   -0.0332822835
 H   -1.8447623328   -3.9388900011    1.3227657140