17

 C    0.0186317305   -1.1802618789   -0.0278092875
 C    0.0241851069    0.0172000007    0.0393168644
 C    0.0011200940    1.4767925209    0.0777744942
 O   -0.7065104159    1.8991538261    1.2200326273
 C   -0.9793134521    3.2964761364    1.1523334344
 C    0.2710249439    4.0928647504    0.8397150351
 C    1.5400587963    3.8845044868    1.6344160360
 C    1.4310567831    3.3371755555    0.2360800022
 O    1.3340756128    1.9420236647    0.0919098363
 H    0.0199096664   -2.2413984634   -0.0768631753
 H   -0.5125920770    1.8693816100   -0.8202570643
 H   -1.7394880852    3.4852045411    0.3767715191
 H   -1.4077841054    3.5662434391    2.1219003149
 H    0.0837532742    5.0906077111    0.4548358106
 H    2.1829939110    4.7390108278    1.8132896970
 H    1.5158024549    3.1445624500    2.4268227447
 H    2.0127217017    3.7918357715   -0.5607546191