13

 N   -0.1160162772    1.2690554124   -0.1479913244
 C   -0.0037550483    0.0322837620    0.0298359481
 O    1.1490187430   -0.6759850014    0.2156734874
 C    0.8239102932   -2.0201268496    0.5603252854
 C   -0.6331239442   -2.1597538944    0.0649636926
 O   -1.0806453131   -0.7953099155    0.0666775733
 C   -0.7482437765   -2.7585861028   -1.2609307900
 C   -0.8301758295   -3.2683663217   -2.3450558861
 H    0.7959075488    1.7161701324   -0.0940533007
 H    1.5152360333   -2.6964615953    0.0578561008
 H    0.8903045653   -2.1520903843    1.6459609273
 H   -1.2546542567   -2.7049057547    0.7802402976
 H   -0.9108262381   -3.7126404970   -3.3069956513