18

 N   -0.0526473007    1.3049532385    0.0885903701
 C   -0.0670954571    0.0390403082    0.0608145162
 O    1.0573433070   -0.7648360640    0.1539915541
 C    0.6862330251   -2.1530933266    0.0743332996
 C   -0.8012432159   -2.1195880141   -0.0615573452
 C   -1.2160283998   -0.8518193070   -0.0679229794
 C   -2.6963543537   -0.7107118934   -0.2473345297
 C   -3.1791895316   -2.1896602979   -0.0837361867
 C   -1.9175428528   -3.1039527848   -0.2387040327
 H    0.9034486895    1.6500012569    0.1871642814
 H    1.1962859361   -2.6093107391   -0.7849662771
 H    1.0352037930   -2.6658855624    0.9805668274
 H   -3.1566346924   -0.0368074326    0.4811943631
 H   -2.9336097435   -0.3040989111   -1.2381769076
 H   -3.5967944389   -2.3246889974    0.9180697647
 H   -3.9659816593   -2.4515084468   -0.7948559288
 H   -1.8697639249   -3.5778441913   -1.2288624548
 H   -1.9034230500   -3.9206032549    0.4918439953