18

 C   -0.2191379295    1.3606577742    0.0130659638
 N   -0.1198747470   -0.0859370793    0.0078798776
 C    0.5727914783   -0.6137760205    0.9097843045
 O    0.6848616134   -1.9833705455    0.9295467105
 C    1.4468694369   -2.5510153161    1.9218360493
 O    2.0208516736   -1.9205272867    2.7730262341
 C    1.4499662498   -4.0222054678    1.7822727281
 C    2.7217179436   -4.7513116891    2.1915221823
 C    1.5190366816   -4.8368123456    3.0660472694
 H    0.1483048518    1.7501834914   -0.9425778682
 H   -1.2731578720    1.6489207363    0.0901905617
 H    0.3384173503    1.8471187019    0.8281706539
 H    1.1204854331   -0.1156628929    1.7124896034
 H    0.8750654377   -4.4126818702    0.9534648235
 H    3.0013016459   -5.6107900735    1.5938598606
 H    3.5413654079   -4.1253802922    2.5237995188
 H    1.5269339083   -4.2685877528    3.9885865301
 H    0.9470501862   -5.7568325815    3.0876088365