19

 N    0.2288163828    1.2668835238   -0.5260205217
 C    0.2180449715   -0.0705028129   -0.1460396683
 O    1.2360756570   -0.7285881375   -0.0362603247
 N   -1.0491259222   -0.5723302290    0.0732535571
 C   -1.2672510525   -1.9846968784    0.2172690052
 C   -1.9908184173   -2.5368318402    1.4819722861
 C   -2.7891384668   -3.4893750557    0.5456218017
 C   -2.4155515995   -2.5852965403   -0.6547957891
 O   -3.4029088781   -1.6135210812   -0.9880552258
 H    1.1450344812    1.6815021597   -0.4486712036
 H   -0.5179501911    1.8544376638   -0.1865920634
 H   -1.8311940696   -0.0843955323   -0.3430985898
 H   -0.3176345484   -2.4958982600    0.0508790678
 H   -1.3694099172   -2.9866669947    2.2586063847
 H   -2.6269621133   -1.7762450281    1.9443975049
 H   -2.3315327292   -4.4786042132    0.4658377962
 H   -3.8591759436   -3.6229984590    0.7327455302
 H   -2.1260798184   -3.0638006566   -1.5938224370
 H   -4.0387140753   -1.5614029581   -0.2676605205