24

 C    0.0507379405    1.6460919398   -0.2378640045
 C    0.1745811280    0.1265568967   -0.1296264463
 C    1.1115500378   -0.5805156169   -1.1665306494
 C    1.4471997879    0.0953600266   -2.4900708441
 C    2.2058331968   -0.7410341358   -0.0575759056
 C    3.3943217678    0.2179988512   -0.1193006285
 C    1.1001964022   -0.4266399950    1.0062565154
 C    1.4225905577    0.4292590388    2.2247485163
 H    1.0193048336    2.1537043431   -0.2687458745
 H   -0.4940165680    1.9272721228   -1.1456459550
 H   -0.5031983446    2.0519656191    0.6155424476
 H   -0.8384136984   -0.2902831681   -0.1053921339
 H    0.6962439950   -1.5709408063   -1.3849288800
 H    1.8692001073    1.0953705870   -2.3552017895
 H    2.1756194044   -0.4956662574   -3.0567559960
 H    0.5524384868    0.1971224216   -3.1146317216
 H    2.6021756574   -1.7598119587    0.0166381577
 H    3.0945185488    1.2673317391   -0.1952103680
 H    4.0181211555    0.1208869120    0.7758690513
 H    4.0273118468   -0.0038768380   -0.9853112556
 H    0.6819361590   -1.3767151209    1.3577299959
 H    1.8469797425    1.4004740890    1.9546931124
 H    0.5214239764    0.6176099741    2.8192731095
 H    2.1444373290   -0.0756031036    2.8767344062