25

 C    0.0098141501    1.6068064106   -0.0423515034
 C    0.1655552763    0.0840699422   -0.0770850937
 C    0.6583820202   -0.5022311505    1.2501305345
 C    0.8182784187   -2.0257791255    1.2242701575
 C    1.2982587268   -2.6096197460    2.5597204043
 C    1.4770000827   -4.1159200396    2.5348649071
 O    0.2966975062   -4.8432337205    2.2908047328
 C    2.7687789426   -4.7169527766    2.0328433871
 C    2.4024423603   -4.7799569938    3.5053278865
 H    0.9633851501    2.0971058595    0.1837745135
 H   -0.3443216960    1.9956176268   -1.0022479847
 H   -0.7080824499    1.9136083009    0.7265059428
 H   -0.7956344129   -0.3771039957   -0.3407482994
 H    0.8639686652   -0.1949076492   -0.8773788594
 H    1.6199230526   -0.0405660078    1.5157167138
 H   -0.0401890863   -0.2241533474    2.0516343545
 H   -0.1463964930   -2.4790779096    0.9571298177
 H    1.5238542058   -2.3058867897    0.4297412526
 H    2.2513665733   -2.1440121906    2.8403543570
 H    0.5781717532   -2.3563968748    3.3489122971
 H    0.0720250255   -4.7364574103    1.3604110993
 H    2.6987784167   -5.6397019169    1.4676299580
 H    3.5708662574   -4.0535817424    1.7263700725
 H    2.9528074981   -4.1594226969    4.2041998129
 H    2.0849086363   -5.7396259764    3.8960219189