20

 C    0.1079862964    1.4538854646    0.3878065666
 C    1.5198812387    1.5396640884   -0.3087235934
 C    1.3208210003    0.0877131368   -0.7699315059
 N    1.5380473966   -0.4465275226   -2.1212507596
 C    2.1406469036   -1.1336966172   -0.9692705762
 C    1.5501051932   -2.4141594937   -0.3943943119
 C   -0.0014948154   -2.4323103889   -0.2936317922
 C   -0.5704877624   -1.1535023943    0.2920317812
 C    0.0577235025   -0.0185130006    0.0064826685
 H    0.0854860780    1.6708507709    1.4593139334
 H   -0.6510883505    2.0725505602   -0.1015030016
 H    1.5983431400    2.2663553328   -1.1198873930
 H    2.3495935782    1.6891547078    0.3866061553
 H    0.7032189555   -0.9290260878   -2.4485527814
 H    3.2267886691   -1.0667156351   -0.9455297455
 H    1.8810357236   -3.2802556667   -0.9797473082
 H    1.9701182544   -2.5411544551    0.6120734591
 H   -0.4303786943   -2.6245357649   -1.2875593527
 H   -0.2987216446   -3.2928056981    0.3149713799
 H   -1.4444882928   -1.2044303266    0.9349409275