19

 N   -0.1021800027   -1.0605825565   -0.6004968960
 C   -0.0683085626    0.0414498416   -0.2546720400
 C    0.0023878909    1.4331764103    0.1967040213
 C    1.4210431398    1.9771481715    0.1705040466
 C    2.4914902438    1.3076474256    1.0251737308
 C    3.6562966851    2.3240218734    1.0658288084
 C    2.9915353641    3.7114726919    0.8911533228
 C    1.7320276760    3.4325662143    0.0867842569
 N    1.8381940189    2.5734389186   -1.1037368996
 H   -0.6314846058    2.0441073838   -0.4527160202
 H   -0.4091836893    1.4869855284    1.2119359203
 H    2.0859494765    1.1402773296    2.0310444407
 H    2.7925667527    0.3294756289    0.6365073656
 H    4.2360934535    2.2533779984    1.9887213550
 H    4.3584225157    2.1311149958    0.2485826544
 H    2.7051413888    4.1336675458    1.8620408427
 H    3.6542342471    4.4378776526    0.4088218301
 H    0.9587405381    4.1941507563    0.0304226165
 H    2.8046987194    2.3533123096   -1.3304513764