19

 C   -0.0453744133    1.5517072023   -0.0141481004
 C    1.3454169838    2.1760145093    0.0122319866
 O    1.9629420861    2.1106044293    1.2867648682
 C    2.2392954043    0.8696651963    1.8462354892
 C    2.4285639435   -0.4783787724    1.0789267934
 O    2.3272702643   -1.1283922092    2.4039950335
 C    1.1919979928   -0.1800730895    2.3683148370
 C    0.8885477145   -0.6861304989    0.9296920095
 C   -0.0079889439    0.0220686374   -0.0804955376
 H   -0.5836431442    1.8882077942    0.8805753715
 H   -0.5979711428    1.9373802432   -0.8790103934
 H    1.9902826668    1.7035801444   -0.7473317768
 H    1.2946700921    3.2443633771   -0.2168405167
 H    3.0242698857    1.0279516002    2.5873360119
 H    3.2376492417   -0.8108987819    0.4262131242
 H    0.5464814271   -0.1439398644    3.2471443853
 H    0.6668191651   -1.7573616506    0.9457379588
 H   -1.0258267623   -0.3682535738    0.0391815450
 H    0.3105401987   -0.2878618631   -1.0856021492