12

 N    0.0005752124    1.3367300488    0.0891173864
 C   -0.0357171243   -0.0137334954    0.0262956652
 N   -1.0969050655   -0.7464561026    0.0044881425
 C   -0.7374125270   -2.1712949833   -0.0090420249
 C    0.7827879128   -2.2528435240   -0.0198430521
 O    1.4995318538   -3.2153590843   -0.0400886484
 C    1.2493252204   -0.7777657320   -0.0030111803
 O    2.3717102921   -0.3422580839   -0.0289934129
 H    0.8836028011    1.7860836035   -0.0895110031
 H   -0.8457574951    1.8597566450   -0.0639361853
 H   -1.1496832863   -2.6862820608    0.8676466825
 H   -1.1588305344   -2.6715161310   -0.8897690296