20

 C    0.0128636617    1.5738657636    0.1655483383
 C    0.0146536385    0.0480878540    0.0344615292
 C    0.6516504827   -0.4722368772   -1.2652708771
 C    0.7798812517   -2.0191464927   -1.3214511788
 C    0.5662770762   -2.4170810109   -2.8008241044
 C   -0.1753977082   -1.2129557351   -3.3572359726
 C   -0.1195394160   -0.1633237637   -2.5262280755
 C   -0.7992478562   -1.2214996720   -4.6344695484
 N   -1.3012451893   -1.2622098041   -5.6780718065
 H    1.0307593436    1.9764262999    0.1174791955
 H   -0.5697300472    2.0513360700   -0.6292150347
 H   -0.4220509130    1.8842917241    1.1202452439
 H    0.5630462440   -0.3868130000    0.8795772935
 H   -1.0112079122   -0.3357074625    0.1048128855
 H    1.6482739291   -0.0094856995   -1.3540847581
 H    1.7323569052   -2.3750989781   -0.9219729263
 H   -0.0150613725   -2.4595905037   -0.7094799365
 H    1.5148622796   -2.5528565592   -3.3358102688
 H    0.0039513154   -3.3479291130   -2.9185719432
 H   -0.5468355430    0.8085660501   -2.7428530249