19

 C   -0.3278960578    1.4994018806    0.0411033749
 C   -0.0209005019    0.0296586555   -0.0347614098
 C   -0.0474179241   -0.6735324710   -1.1774040079
 C    0.1761640529   -2.1544058795   -1.2944866342
 C    0.8577750247   -2.7768745442   -0.0922292064
 C    2.1369591664   -2.2022254337    0.4245404942
 C    0.8508232654   -2.0116096282    1.2213757674
 C    0.2409987475   -0.6533717309    1.2656550691
 O   -0.0411739947   -0.1201053245    2.3244232786
 H    0.5232406835    2.0591712471    0.4444542987
 H   -0.5779373496    1.9048652378   -0.9424842238
 H   -1.1614645778    1.6781758961    0.7268337191
 H   -0.2906333563   -0.1569334835   -2.1048395135
 H   -0.7975673548   -2.6385509813   -1.4622223018
 H    0.7586068636   -2.3631128672   -2.2026611234
 H    0.7457509839   -3.8533638668   -0.0103212688
 H    2.8744910081   -2.8752948389    0.8461041937
 H    2.5483060104   -1.3300781580   -0.0718573099
 H    0.7623212606   -2.5555989592    2.1544938138