22

 C    0.0697808325    1.5564953282    0.1149157732
 C   -0.0201424676    0.0305475708    0.1926308378
 C   -1.3938325260   -0.5090462082   -0.2331385555
 C   -1.4613347404   -2.0204401031   -0.1595830805
 C   -1.8518247011   -2.7451703162    1.0962642258
 C   -2.7865101479   -2.7854120692   -0.1085993800
 C   -4.1297204811   -2.0716452833   -0.0558521203
 C   -2.8149071814   -4.0221103341   -0.8518697419
 N   -2.8464137358   -5.0090470915   -1.4557208089
 H    1.0586048401    1.9121847799    0.4197653489
 H   -0.1126687540    1.9130989295   -0.9048480282
 H   -0.6706609156    2.0317406754    0.7680324444
 H    0.7550154463   -0.4167998191   -0.4428271305
 H    0.1956368346   -0.3033694564    1.2153172197
 H   -2.1659846240   -0.0601096369    0.4022689163
 H   -1.6097348809   -0.1814021881   -1.2588363876
 H   -0.6985731595   -2.5179464844   -0.7531731790
 H   -1.3272344160   -3.6530147263    1.3692330581
 H   -2.2002762217   -2.1534380192    1.9370833862
 H   -4.0712225326   -1.1725017309    0.5602659301
 H   -4.4616512485   -1.7803793313   -1.0568935558
 H   -4.8923308993   -2.7262730155    0.3760254677