20

 C   -0.0344485594    1.5504608308    0.3169755685
 C   -0.0605004441    0.0515580690   -0.0028686876
 C    0.7914821214   -0.7649434402    0.9807944558
 N   -1.4359765793   -0.4347703195   -0.0368983760
 C   -2.0371365105   -1.5524136856   -0.7851056216
 C   -3.3393839323   -1.3057912960    0.0229704641
 O   -3.7707314770   -2.4060662723    0.7827459665
 C   -2.5063657698   -0.2565948459    0.8002606593
 O   -2.6914411064    0.4074438595    1.7923018729
 H    0.9972759368    1.9139304022    0.3174835142
 H   -0.6006151842    2.1170344849   -0.4276384028
 H   -0.4769491533    1.7404871907    1.2973581401
 H    0.3344041358   -0.0984775325   -1.0160297348
 H    0.4266174721   -0.6285029060    2.0033350153
 H    0.7575009776   -1.8325794868    0.7431248821
 H    1.8367331947   -0.4425333316    0.9414434600
 H   -2.0894106530   -1.3899443661   -1.8661494914
 H   -1.5940665648   -2.5294078381   -0.5676052063
 H   -4.1505924516   -0.8702257933   -0.5758989424
 H   -4.1302560726   -2.0562360133    1.6065014042