23

 C   -0.1276200046    1.5499100602   -0.1607831674
 C    0.0511115694    0.0481896027    0.0098390067
 C    1.0588279813   -0.7090270337   -0.8960654164
 C    1.4269725369   -1.6064416489    0.3138518338
 C    0.7910503663   -0.5457784624    1.2648756506
 C    1.8421467006    0.3887986044    1.8661648634
 C   -0.1484517905   -1.0936141035    2.3585939807
 C    0.5287260104   -1.9030999441    3.3661206672
 C    1.1064987059   -2.5748855593    4.1792448397
 H    0.8274004312    2.0818606396   -0.1065358590
 H   -0.5741461550    1.7739745812   -1.1361732576
 H   -0.7886830635    1.9701657660    0.6059052948
 H   -0.9295377982   -0.4381600318   -0.0678174086
 H    0.6608830832   -1.1992014813   -1.7879086194
 H    1.8910374071   -0.0673386393   -1.2023521983
 H    0.8655953426   -2.5453545882    0.3169459292
 H    2.4833954352   -1.8370836421    0.4714391326
 H    2.5368559944    0.7582451612    1.1055670020
 H    1.3788353946    1.2584185364    2.3457324338
 H    2.4271078536   -0.1405561705    2.6243937613
 H   -0.6627198696   -0.2555976909    2.8499646762
 H   -0.9330105283   -1.6978965213    1.8848802578
 H    1.6065788070   -3.1684056247    4.9036453871