16

 N   -0.0186580843   -1.1119684776    0.0585123035
 C   -0.0037894404    0.0419253374   -0.0027960747
 C   -0.0432935571    1.4901155196   -0.0845856637
 C    0.5637912919    2.1259596307   -1.2900881132
 N    1.2946042489    2.1225392362   -0.0075280301
 C    1.3280609673    3.3763464792    0.6878595273
 N    0.3677923109    4.0819849140    1.1106462311
 C   -0.9980324393    3.6492288876    0.8299866719
 C   -1.1808718633    2.1299647766    0.6961570071
 H    0.9960067816    1.5018123324   -2.0652344515
 H    0.1389004265    3.0666846857   -1.6275372616
 H    2.3496388682    3.7129111036    0.8627516425
 H   -1.6437864096    4.0229264486    1.6301105811
 H   -1.3284067643    4.1621233719   -0.0825787985
 H   -2.1432125211    1.8911395741    0.2327332993
 H   -1.1876674561    1.6792332201    1.6943119493