20

 C    0.0764575958    1.4875375035    0.0141512862
 C    0.0372388990    0.0325799761    0.0148119047
 C    0.0099293158   -1.1720662645    0.0318426162
 C   -0.0324432435   -2.6067254164    0.0076349344
 N   -0.5555955187   -3.3089449326    1.2175308716
 C   -1.3183606106   -3.3678194005   -0.0144787435
 C   -2.7207135969   -2.7955103336   -0.2231146500
 C   -2.8901997646   -3.7980765748   -1.4049211441
 C   -1.6299315461   -4.5720421480   -0.9109458081
 H    1.1033075632    1.8579524905   -0.0806426253
 H   -0.5044337729    1.9050714094   -0.8159389371
 H   -0.3366028060    1.8930847238    0.9444043450
 H    0.8013874910   -3.0824197692   -0.5068130050
 H   -0.0327222992   -4.1727453895    1.3519176502
 H   -3.3799690889   -3.0170691804    0.6210704301
 H   -2.7807918633   -1.7290831455   -0.4510589392
 H   -3.8238365875   -4.3619718457   -1.4416267914
 H   -2.7282792211   -3.3250436391   -2.3760596594
 H   -0.8810966224   -4.8551672768   -1.6558475583
 H   -1.8941410531   -5.4589232568   -0.3245230370