25

 C   -0.0732891103    1.5114846421    0.0859483657
 C   -0.0469259859    0.0563577634    0.0180093430
 C   -0.0183405563   -1.1476174424   -0.0298100201
 C   -0.0274117496   -2.6124014472   -0.0812520705
 C   -1.4810645079   -3.1225569067    0.0317281389
 C    0.7700172836   -3.1667885254   -1.3168468324
 C    2.2242359352   -2.6677834146   -1.2242799633
 C    0.7803672973   -4.7063488603   -1.2808886538
 C    0.1520413932   -2.6861586836   -2.6413701991
 H    0.4391611034    1.9612393206   -0.7718275253
 H   -1.1006366350    1.8927093608    0.0924487293
 H    0.4201656020    1.8778690361    0.9932218182
 H    0.5101679970   -2.9766341855    0.8070413342
 H   -2.0806592251   -2.8114267496   -0.8278324624
 H   -1.5169742874   -4.2121774455    0.1055959307
 H   -1.9498668644   -2.7076306378    0.9278388924
 H    2.7030147564   -3.0159104721   -0.3016768545
 H    2.8140939948   -3.0430053891   -2.0673607312
 H    2.2699493399   -1.5756559838   -1.2342216721
 H   -0.2127311888   -5.1322731464   -1.4493296210
 H    1.4390081100   -5.0970466705   -2.0638107061
 H    1.1516783113   -5.0808380718   -0.3198482357
 H    0.1121217535   -1.5938170677   -2.6824991257
 H    0.7504672646   -3.0364574324   -3.4891974091
 H   -0.8644511215   -3.0680244006   -2.7790623002