18

 O   -0.1406929875   -0.0232192219   -0.0103011293
 C   -0.0439463307    1.1919987007   -0.0380173267
 C    1.1941136303    1.9204001754   -0.0352784928
 C    1.3804339545    3.2604938089   -0.0399463751
 C    0.8596762510    4.6532788389    0.2557790172
 C    2.3433012703    4.9400294398    0.6758667671
 N    2.6987949149    3.6522209899    0.0227153312
 C    3.5000370541    2.4972455680    0.4570599350
 C    2.5970306704    1.3059004425    0.0052413407
 H   -0.9547529508    1.8350010395   -0.0574740353
 H    0.5321575674    5.2130722092   -0.6223237656
 H    0.1037619236    4.7239361332    1.0379345146
 H    2.8385017917    5.8163644652    0.2518988086
 H    2.4829596219    4.9211469004    1.7639250019
 H    4.4924660779    2.4881728011    0.0011583237
 H    3.6181535266    2.5125630201    1.5514459324
 H    2.6518146088    0.4546365449    0.6874114925
 H    2.9036708456    0.9457802443   -0.9842497702