18

 C   -0.1918110807    1.5472184535   -0.0277149395
 C    0.0175416804    0.0492404052    0.0614000873
 C    1.3406670031   -0.6595734291   -0.1982910997
 C    2.6239024996    0.1379224734   -0.0867889825
 O    2.5465977120    0.8506779546    1.1512665188
 C    1.7035912798    0.1348825338    2.0458496284
 C    0.7365219749   -0.6640552683    1.1812206611
 O    0.2201356700   -1.8419023093    1.7229866941
 H    0.6627550564    2.1002437610    0.3662610469
 H   -0.3435737126    1.8539258957   -1.0685594243
 H   -1.0827151089    1.8499249651    0.5341650713
 H   -0.8225740304   -0.5379673275   -0.3046945909
 H    1.3352943181   -1.5612480228   -0.7992146609
 H    3.4892839162   -0.5434621854   -0.0963477204
 H    2.7692533810    0.8841181826   -0.8755771219
 H    2.2695526186   -0.5768027166    2.6675481813
 H    1.2308848805    0.8723835202    2.7051815520
 H   -0.5702230078   -1.6183499260    2.2257827292