22

 C    0.0722066896    1.4182926868   -0.1168124254
 N   -0.0475440701   -0.0128084178    0.0702880029
 C   -1.4081670141   -0.5218987486    0.0220531615
 C   -1.3557694890   -2.0444884272    0.0394467230
 O   -0.8023850516   -2.5463710659    1.2462390097
 C    0.3019407148   -1.8565119026    1.7715842433
 C    0.3621326055   -2.0904554601    3.2615749548
 C    1.5984032565   -1.7205088715    1.0040253744
 C    0.6861005935   -0.5115779169    1.2105257842
 H    1.1290170487    1.6957460734   -0.1820521300
 H   -0.4117575344    1.7084990975   -1.0553672644
 H   -0.3855491622    2.0120601768    0.6978127066
 H   -2.0375827419   -0.1642155138    0.8600575313
 H   -1.8774023931   -0.1895056237   -0.9112072687
 H   -2.3607066706   -2.4719591730   -0.0266485923
 H   -0.7751629771   -2.3900787079   -0.8294778698
 H    0.4590711584   -3.1610244799    3.4708990512
 H    1.2191602822   -1.5761102098    3.7045189697
 H   -0.5514747940   -1.7304739803    3.7452008489
 H    2.5297356840   -1.7957283547    1.5561933525
 H    1.6346664480   -2.0925486297   -0.0136010424
 H    0.9934540570    0.2480376989    1.9295477389