18

 O    0.0965140515    1.3703482763   -0.3197150079
 C   -0.0149848090    0.0294263462    0.0356218550
 C   -1.3955759864   -0.5677042185    0.2485893732
 C   -2.6449835941    0.2703607756    0.0985533450
 C   -3.6470322356   -0.3755508422   -0.8659996836
 N   -3.2961704836   -0.3628131815   -2.2766190555
 C   -2.1456557752   -0.3242270717   -2.7732701899
 O   -0.8787903198   -0.3177215311   -2.2262135247
 C   -0.5963678563   -0.9184250642   -0.9809169484
 H    0.0502882602    1.4119899518   -1.2837186200
 H    0.8025230465   -0.3177561546    0.6621147403
 H   -1.4558560636   -1.3698655266    0.9798003464
 H   -3.1190031540    0.4035776782    1.0778146726
 H   -2.3806198439    1.2713174476   -0.2568869394
 H   -3.8360892182   -1.4172773337   -0.5696426425
 H   -4.6138233820    0.1354926716   -0.7842392927
 H   -2.0286517218   -0.2424504978   -3.8541250433
 H   -0.1826969446   -1.9162062552   -1.0977280646