16

 N   -0.0633034764    1.2362357655    0.3839297267
 C   -0.0165389993    0.0289164547    0.0085864400
 O    1.1629449914   -0.6187867764   -0.2708629655
 C    0.9998328925   -1.9825174760   -0.6735952261
 C    0.1144255914   -2.0348483835   -1.9299353128
 C   -1.2449761872   -1.8432276510   -1.2834636101
 C   -1.0544374586   -2.2933383710    0.1314815000
 O    0.2884609486   -2.6880078197    0.3177087859
 C   -1.2280711003   -0.8114545786   -0.1468947400
 H    0.8801440759    1.6251206317    0.4373130597
 H    2.0017499036   -2.3984177688   -0.7571096597
 H    0.3962020429   -1.2586258699   -2.6440786615
 H    0.1851252028   -3.0146199898   -2.4118143923
 H   -2.1612634773   -2.0055254465   -1.8350506631
 H   -1.7558045324   -2.8595489293    0.7284169857
 H   -2.1569432776   -0.3291224515    0.1257713731