14

 O    0.5270870535    0.0258983238    0.1286039227
 C    0.6169111360    1.1905846427    0.3638875932
 O    0.6127587766    2.1178840435   -0.6255323486
 C    0.8161299580    3.4833699286   -0.3567310411
 C    1.3351082470    3.9784402704    1.0304129747
 N    2.6655828062    3.3234787719    0.6561521937
 C    2.2513243716    4.0167950539   -0.6430647879
 C    1.8860915244    5.2077455501    0.2651175438
 O    2.1136052502    6.3649886463    0.4225311057
 H    0.6845273245    1.6277516218    1.3714826769
 H   -0.0088660618    4.0447863580   -0.7967299872
 H    0.8950761897    3.8940440638    2.0209593792
 H    3.4551864718    3.7992076625    1.0997228377
 H    2.8328855222    3.9378316526   -1.5577033129