18

 C   -0.0006256798    1.4950116523    0.0896612597
 C    0.0836723098   -0.0250998108   -0.0126891729
 C    0.6772802007   -0.5025060428   -1.3280781956
 O    0.9954756406    0.2639876686   -2.2144508469
 C    0.8691475807   -1.9856775687   -1.4911399268
 O    0.4835857406   -2.8023951938   -0.4204165679
 C    0.7905005105   -2.5441774856   -2.9021023621
 C    2.1201730453   -2.4245029346   -2.2229020957
 H    0.9919912289    1.9463057629    0.0127439003
 H   -0.6062378024    1.9089270561   -0.7204644629
 H   -0.4436549814    1.7935831913    1.0438489644
 H    0.6744110826   -0.4620647317    0.8018798419
 H   -0.9089357935   -0.4854553507    0.0959623587
 H   -0.4654302645   -2.9555586112   -0.4809850207
 H    0.3565945795   -3.5335116182   -2.9953054468
 H    0.5545423743   -1.8363792738   -3.6878795970
 H    2.7896596320   -1.6382730195   -2.5500390602
 H    2.5816392261   -3.3282755800   -1.8433174696