19

 O    0.0641674394    1.3956869207    0.0841299987
 C    0.0610833814   -0.0073063983    0.0629472170
 C    0.1336048827   -0.6606146201    1.4683253606
 O    1.1227761196   -0.2325583947    2.3430061660
 C   -1.3820183124   -0.3023968938    1.6271913424
 C   -1.3691270280   -0.6156032216    0.0971572635
 O   -2.2720101453   -0.0519252532   -0.8063437719
 C   -1.0844288661   -2.1258093385    0.0552363285
 C    0.0775940548   -2.1609719255    1.1017408088
 H   -0.6184215480    1.6788966456   -0.5370832298
 H    0.7532285612   -0.4003080289   -0.6960019405
 H    1.0404540397   -0.7320167005    3.1626481329
 H   -1.9992488637   -0.9303222806    2.2770373224
 H   -1.5241200830    0.7572100019    1.8301666746
 H   -3.1690264879   -0.2344807223   -0.5088112245
 H   -1.9501100643   -2.7228382130    0.3590815852
 H   -0.7749559753   -2.4532788480   -0.9410272962
 H    1.0253071305   -2.5075001751    0.6801978708
 H   -0.1566530054   -2.7813538341    1.9731772314