18

 O   -0.2492904484    0.2333287149    0.5800939033
 C    0.0425353905    1.1083634797   -0.1895243018
 C    1.3436076856    1.8903445820   -0.1157944401
 O    1.3528552478    2.8270051155   -1.1627997203
 C    2.5181895451    3.6204124463   -1.2052794070
 C    2.3915180210    4.5829718596   -2.3792420563
 C    3.6298428200    5.4910459513   -2.4984144518
 C    3.5311228157    6.4240676241   -3.6183407206
 N    3.4406082633    7.1566771021   -4.5070889776
 H   -0.6191886219    1.4221212491   -1.0264177299
 H    1.4107230006    2.3741705537    0.8734122813
 H    2.1869476924    1.1825408807   -0.1857059998
 H    2.6391773548    4.1769032467   -0.2597343779
 H    3.4125781596    2.9840044057   -1.3212479138
 H    2.2597929687    4.0104542436   -3.3021785051
 H    1.4933095316    5.1939135122   -2.2492191156
 H    3.7703229830    6.0705221273   -1.5780819504
 H    4.5361647405    4.8880330856   -2.6306752067