17

 C   -0.0273733503    1.5778288965   -0.0022969088
 C    0.0148310891    0.0452991483    0.0310831247
 C    0.6910169989   -0.5219551066   -1.2318084971
 C    0.9813865269   -2.0167136662   -1.1772493582
 O    0.9697382188   -2.7501896733   -2.1437355491
 N    1.3331419130   -2.4722485093    0.0771759211
 C    1.3048589666   -1.6843312663    1.2331420047
 C    0.7134106438   -0.4892717119    1.2591732525
 H    0.9850368868    1.9961438140   -0.0235556165
 H   -0.5612873844    1.9376653107   -0.8875642505
 H   -0.5362348305    1.9753373492    0.8819054212
 H   -1.0271907349   -0.3147811258    0.0485807731
 H    0.1045027845   -0.3318775635   -2.1330373435
 H    1.6635219772   -0.0261282291   -1.3677385103
 H    1.6201806076   -3.4378461408    0.1258414587
 H    1.7904926268   -2.1267046368    2.0951314284
 H    0.7093182303    0.0895517010    2.1752740196