16

 N    0.0830189540    1.4135567059    0.0357919742
 C   -0.0163528266    0.0101385447    0.0022872907
 C   -1.0824940428   -0.8504966282   -0.1303611212
 C   -0.5715569324   -2.1800800861   -0.0127433985
 C   -1.3604140735   -3.4603125239   -0.0845276738
 C   -2.0299371087   -3.6602724511   -1.3755697821
 N   -2.5634699564   -3.8109598643   -2.3895129472
 C    0.7849480650   -2.0856272552    0.1778237874
 N    1.1116160376   -0.7486114549    0.1909619553
 H    0.5061226401    1.7922652112   -0.8068974762
 H   -0.8328985029    1.8332026590    0.1354393921
 H   -2.1059903194   -0.5667524470   -0.3234058877
 H   -0.7033011976   -4.3183545955    0.0940833351
 H   -2.1320515703   -3.4935926845    0.6955481543
 H    1.5367916944   -2.8488131667    0.2971570178
 H    2.0143392093   -0.3634979334    0.4087204496