20

 C   -0.5436832918    1.4935166982    0.0612705674
 C   -0.0997216214    0.0323583777    0.0097578388
 C    0.7449597316   -0.3357142863   -1.2187081053
 O    1.3476565974   -1.5721202514   -0.8842467569
 C    1.7928359385   -1.4465295202    0.4597058907
 C    0.8090735167   -0.4813256764    1.1829717694
 C    1.5576199094    0.6573461321    1.8688730670
 N    1.0987731253    0.9941073475    3.1084953647
 O    2.4800247925    1.2502311502    1.3374244290
 H    0.3165280620    2.1686799890    0.0615682092
 H   -1.1633250710    1.7322412658   -0.8093642175
 H   -1.1390874005    1.7033461974    0.9555956472
 H   -0.9879411764   -0.6091175110    0.0000520031
 H    0.1535157037   -0.4807945550   -2.1270450656
 H    1.5036459380    0.4412901532   -1.4052703901
 H    1.8073879362   -2.4469348593    0.9003623244
 H    2.8033614792   -1.0204719962    0.4915239437
 H    0.1973933840   -1.0180615900    1.9135798102
 H    0.3693653011    0.4829726787    3.5721169852
 H    1.5558023157    1.7451928561    3.5996702655