17

 O   -0.4602384909    0.0897398212   -0.2474573881
 C   -0.0419710726    1.1955862350   -0.0193660088
 C    1.3711202330    1.6539395794   -0.3280336065
 C    1.3844707304    2.9249563031   -1.1729281121
 O    0.7659138188    4.0472212151   -0.4918358842
 C    1.9232077240    4.8946955187   -0.6787915918
 C    2.6850550475    3.7235100269   -1.2899759196
 C    4.0864132916    3.3198587826   -1.2108551691
 O    3.4947776396    3.7900209923   -2.4360547182
 H   -0.6834557382    1.9735144660    0.4468681713
 H    1.8755773407    1.8647555866    0.6245286730
 H    1.8982851979    0.8425611023   -0.8391388122
 H    0.9147063606    2.7483841067   -2.1504202908
 H    1.7311117696    5.7152379622   -1.3808718516
 H    2.2977516180    5.2990588267    0.2682835589
 H    4.8163815206    3.9899509669   -0.7591293455
 H    4.3508185295    2.2637696984   -1.1983632247