23

 C   -0.0167964000    1.5867515511   -0.0078123044
 C   -0.0117673130    0.0565994535   -0.0595250450
 C   -1.4094416318   -0.5488868973   -0.0060445177
 C   -1.4052689405   -2.0729723383   -0.1218897548
 O   -2.7070449592   -2.6135818850    0.0504191923
 C   -3.3449692523   -2.2031391123    1.2633416788
 C   -2.7357361924   -2.8703580668    2.4999342513
 C   -3.3285584634   -0.6736420728    1.3449894438
 O   -2.0053387465   -0.1757912416    1.2364577556
 H    1.0027035491    1.9835717568   -0.0109324651
 H   -0.5428676432    2.0094439854   -0.8709636315
 H   -0.5204232806    1.9370010424    0.8963285989
 H    0.4781816389   -0.2898729382   -0.9781326169
 H    0.5695535446   -0.3439381620    0.7800643143
 H   -2.0260906069   -0.1421832336   -0.8280206409
 H   -1.0799152307   -2.3830646232   -1.1200224933
 H   -0.7005417332   -2.4925263529    0.6126922325
 H   -4.3828208241   -2.5372222836    1.1503871842
 H   -1.7536468411   -2.4543372879    2.7385094623
 H   -3.3836205953   -2.7134028858    3.3684591265
 H   -2.6345164607   -3.9465177539    2.3357239817
 H   -3.9551567741   -0.2589778896    0.5390328032
 H   -3.7202466236   -0.3257183845    2.3060520642