15

 O   -0.1998350343    1.3179366551    0.0264058338
 C    0.0299782821   -0.0797802482    0.0271240781
 C    0.6838380017   -0.5129695664   -1.2206265210
 N    1.2202596875   -0.7878284295   -2.2060719050
 C    0.8378884129   -0.5255260143    1.2674783460
 C    0.1499186392   -0.0993885528    2.5911113293
 O   -0.1436853364   -1.3589860609    3.2469129431
 C    0.3445158269   -2.3134494848    2.4270584236
 N    0.9094672042   -1.9923923417    1.3372623467
 H    0.6257709479    1.7637653263   -0.1967265150
 H   -0.9605120145   -0.5454766609    0.0761054367
 H    1.8492473803   -0.1123675275    1.1786981084
 H    0.7980716738    0.4833636911    3.2489793746
 H   -0.7852882126    0.4434702656    2.4371095552
 H    0.2060677312   -3.3275883211    2.7850216254