16

 O   -0.0754912983    1.3375384261   -0.2902502851
 N    0.0368107804   -0.0366510709   -0.0827355299
 C   -1.0887215712   -0.6242976106    0.0609284335
 C   -1.1427454737   -2.1208575391    0.2805853573
 C   -2.5959787965   -2.3547967433    0.6665084887
 C   -3.1542357637   -1.6240168635    1.8248795486
 N   -3.3934480124   -1.1267821444    0.4462345638
 C   -2.4884723059   -0.0752616592    0.0859808713
 N   -2.9178276511    1.0924246532   -0.1542966344
 H    0.8441848516    1.6115725004   -0.3737412710
 H   -0.9096205375   -2.6485833293   -0.6509571171
 H   -0.4264425329   -2.4588242971    1.0342753206
 H   -3.0693203140   -3.2754747315    0.3407785833
 H   -4.0439571984   -1.9888487775    2.3275707681
 H   -2.4734142659   -1.0550371742    2.4543743028
 H   -2.1387779206    1.7014604511   -0.3958043606