20

 C   -0.2509403449    1.3601138606    0.4564097030
 C    0.1681022170   -0.0836678536    0.2422129035
 O    0.2038391795   -0.7333041930    1.5061042720
 C    0.5649969137   -2.0810361140    1.4437102654
 C    2.0231016077   -2.4688886615    1.4179715775
 C    1.1960384784   -2.6416224890    2.6805302968
 C    1.4099023882   -1.7002440409    3.8518632865
 O    0.1862518135   -1.2883262137    4.4361116607
 H    0.4607152098    1.8746528960    1.1084113447
 H   -0.2909932347    1.8900542011   -0.4997516973
 H   -1.2397933992    1.4091163156    0.9212919989
 H   -0.5428569279   -0.6014261953   -0.4212060461
 H    1.1587275107   -0.1407265214   -0.2331317640
 H   -0.1379903139   -2.7018700361    0.8868948552
 H    2.3210404699   -3.3451212632    0.8527618011
 H    2.7483969544   -1.6614024450    1.4203520974
 H    0.8983653009   -3.6502567371    2.9507911190
 H    1.9756523042   -2.2042389121    4.6424473692
 H    2.0036363370   -0.8349609463    3.5239509734
 H   -0.2848554842   -0.8155805411    3.7393028231