18

 O   -0.0070043598    1.3660039258    0.0538049578
 C    0.0234404601   -0.0212469194    0.0259841928
 C   -0.6030318548   -0.7831625337    1.1478098061
 C    0.8962442905   -0.8969493802    0.9098250822
 C    1.3727396106   -1.8941861561   -0.1217065109
 C    0.2332775616   -2.2827773431   -1.1035956877
 C    1.3026309777   -2.3066720722   -2.1996299784
 N    1.7206101460   -1.0689890693   -1.4092029721
 C    0.1950745887   -0.7450998978   -1.2975943846
 H    0.8193904152    1.6815851830   -0.3311924055
 H   -0.8843784301   -0.1804029104    2.0047638458
 H   -1.2604106732   -1.6241426726    0.9537805539
 H    1.5835012121   -0.4758661006    1.6328481405
 H    2.1290248361   -2.6311014674    0.1548100036
 H   -0.6050564019   -2.9695883608   -0.9388842220
 H    2.0435958376   -3.1113659884   -2.1779906745
 H    0.9928060253   -2.0896275583   -3.2258251205
 H   -0.2508051418   -0.3008963086   -2.1893493465