23

 C   -0.0050943574    1.5510781703   -0.1434152242
 C    0.1144203760    0.0282057103   -0.0598190019
 C    0.6497076398   -0.4645435768    1.2920816661
 O   -0.1723044141   -0.0150061855    2.3747564946
 C    0.8231227945   -1.9709585801    1.3051502794
 C    2.1721451989   -2.6067183596    1.0570919948
 C    1.5402183089   -2.6922286065    2.4224370416
 C    2.1268296747   -1.9639278049    3.6034506910
 O    3.1411324540   -2.7935312238    4.1605429829
 H    0.9776300099    2.0282086674   -0.0576728175
 H   -0.4451135367    1.8635406055   -1.0952162216
 H   -0.6295482527    1.9313048319    0.6691121558
 H   -0.8683337318   -0.4349697837   -0.2328503571
 H    0.7719573548   -0.3493021181   -0.8527233486
 H    1.6172655114    0.0165539142    1.4780403939
 H   -1.0109282925   -0.4862700896    2.3155388024
 H   -0.0323016749   -2.5029826053    0.8903354871
 H    2.2274263408   -3.5009326859    0.4465352483
 H    3.0221968644   -1.9401833730    0.9448812292
 H    1.1286234556   -3.6609852162    2.6930483130
 H    2.5392036314   -0.9928692781    3.2922025470
 H    1.3359161100   -1.7544134264    4.3390818114
 H    3.4564544451   -2.3725133860    4.9657388325