15

 N   -0.1060237463    1.3389816006    0.2070940662
 C   -0.0546042893    0.1034286930   -0.0300396012
 C   -1.2603068249   -0.7884619571   -0.0305346305
 C   -1.1715177981   -1.8423983202   -1.1080343847
 C   -0.6571108607   -1.5325120828   -2.4608872301
 N    0.1604902549   -2.3269972150   -1.5049763600
 C    1.3120741207   -1.6922850784   -0.9886605909
 O    2.4160497904   -2.1008068383   -1.1661109407
 O    1.1576225255   -0.5350057846   -0.2382866777
 H    0.8310590292    1.7472165660    0.1938946608
 H   -1.3130538443   -1.2882454090    0.9455207379
 H   -2.1541719590   -0.1703271134   -0.1316463723
 H   -1.8871984039   -2.6551531540   -1.0156437108
 H   -0.9954570507   -2.0915228833   -3.3267538259
 H   -0.3399033436   -0.5129006835   -2.6651431403