18

 C   -0.5825906023    1.3948298405   -0.0061954162
 C    0.2041344664    0.0879447839    0.0224412021
 N    0.9655679593   -0.0982461720   -1.2157798033
 C    1.9028858539   -0.9502892114   -1.2249932275
 C    2.6495927107   -1.3210812514   -2.4696163020
 O    2.3401060998   -1.6763346838   -0.1491945408
 C    2.2225091049   -1.0488576778    1.1258632208
 C    1.0912800239   -0.0348997342    1.2524560410
 O    0.9573086838    0.6049481919    2.2666258725
 H    0.0987111014    2.2463468326   -0.0855332647
 H   -1.2473409024    1.4043877755   -0.8727331281
 H   -1.1700425501    1.5104229966    0.9067048948
 H   -0.5073201510   -0.7536953566    0.0986271127
 H    3.7119759017   -1.0780330299   -2.3655327889
 H    2.5817610569   -2.4014559970   -2.6342415513
 H    2.2300844534   -0.7920154520   -3.3241133489
 H    2.0737134191   -1.8424356880    1.8646969025
 H    3.1623632904   -0.5380801371    1.3710465153