16

 C   -0.1922463355    1.3569597465    0.2306627922
 O    0.1743019752    0.0041085121   -0.0199166460
 C    0.8406553400   -0.6030850647    1.0113354780
 C    2.2874653494   -0.1897821405    1.4177647119
 N    2.5444348495   -1.0782671393    2.5939610518
 C    1.6340543253   -1.9481025083    2.4563836035
 O    0.5261671843   -2.0127434532    3.3127337706
 C   -0.1209370197   -1.4643179139    2.0766572600
 C    0.8117784159   -2.0778751627    1.1344797997
 H    0.6873964777    2.0038860986    0.3357336820
 H   -0.7740923263    1.6867443073   -0.6316636098
 H   -0.8033952420    1.4378155278    1.1385266476
 H    2.9704678128   -0.3026012270    0.5623622107
 H    2.3781672390    0.8324292677    1.7970106904
 H   -1.2010446492   -1.3857823347    2.1061419267
 H    0.7474293837   -2.8883318057    0.4197697407