13

 O   -0.3440101575    0.0788232600    0.0021703506
 C   -0.0742698500    1.2596420437    0.0084687631
 N    1.1834836766    1.7911436427    0.0011012404
 C    2.3830667033    1.0788180040   -0.0141403810
 N    3.5204704550    1.7695527969   -0.0176215303
 N    4.4737846602    0.8134791327   -0.0330785423
 C    3.9676197312   -0.4406170564   -0.0392122191
 C    2.5941990476   -0.3190788660   -0.0272207646
 H   -0.8421290163    2.0569594034    0.0211486682
 H    1.2797178481    2.7958769045    0.0080861321
 H    5.4387651399    1.0936059450   -0.0385225127
 H    4.6060606086   -1.3097972023   -0.0514095642
 H    1.8469064633   -1.0904360883   -0.0273915703