16

 N   -0.1634706310    1.1634740571   -0.4425036227
 C   -0.3047788525   -0.0818174617   -0.5514780278
 O   -0.9896390793   -0.7582711672    0.4080244393
 C   -1.0746756660   -2.1570234795    0.2686913984
 C   -1.7383119598   -2.8192416895    1.4855610175
 O   -2.8213773977   -3.3333661938    0.6772434050
 C   -2.3005088268   -2.7250725401   -0.5143217026
 C   -3.2316693612   -1.6920922111   -1.1209408915
 O   -2.9534645946   -1.0752604100   -2.1160297951
 H    0.3657199650    1.5264286246   -1.2324800496
 H    0.0713546929   -0.7242445712   -1.3568546567
 H   -0.1136241600   -2.5793591626   -0.0383509722
 H   -1.1689451984   -3.6197222360    1.9684445796
 H   -2.0822598279   -2.0980865726    2.2341980398
 H   -2.0411532764   -3.4646509047   -1.2831612720
 H   -4.1840435264   -1.5523738017   -0.5652252495