18

 N    0.0773345630    1.2126125396    0.0669459754
 C   -0.0027559368   -0.0367592471   -0.0111427708
 O    0.9998523368   -1.0051350229   -0.0425720336
 C    0.0351078669   -2.0775420303   -0.2922521183
 C   -0.3506728653   -2.8571050477    0.9837350749
 C   -1.5236648585   -1.8662391084    1.1957691049
 C   -2.8560349076   -2.1839270738    0.4428018552
 C   -2.5212658871   -1.1055596385   -0.6376716619
 C   -1.1043422131   -1.0399170679   -0.0856505258
 H    1.0493892477    1.5215229221    0.1202044743
 H    0.2598491808   -2.5920719000   -1.2275969891
 H   -0.6494685090   -3.8961885046    0.8175702932
 H    0.4324725845   -2.8304655499    1.7447840170
 H   -1.6360840559   -1.3855666819    2.1671948898
 H   -2.8932003956   -3.2042002993    0.0507024663
 H   -3.7673085350   -2.0049242639    1.0159936921
 H   -2.6380150547   -1.3763440035   -1.6902441402
 H   -3.0558911513   -0.1688178719   -0.4581480533