18

 C    0.1476114894    1.5396954967    0.0099638972
 N    1.2828811002    0.6179213397   -0.0641402489
 C   -0.0831383238    0.0624874444    0.0361456691
 C   -0.4258649316   -0.6696865224    1.2689331070
 C   -1.3423598205   -1.6377170664    1.4022483701
 C   -1.4638288366   -2.1377881593    2.8268627266
 C   -0.3753034860   -1.3566082410    3.5541811683
 O    0.9444384139   -1.6106901792    3.0715126894
 C    0.2521107913   -0.4393112386    2.5874643134
 H    0.0836888435    2.1156343371    0.9293419510
 H   -0.1625181759    2.0796010209   -0.8812845117
 H    1.6230128557    0.5431935382   -1.0186359322
 H   -0.5239220775   -0.3525917484   -0.8683459732
 H   -1.9234933889   -2.0568419235    0.5875035900
 H   -2.4541612442   -1.9267176000    3.2518282891
 H   -1.3071687426   -3.2205017038    2.9067059152
 H   -0.4533698912   -1.1457109033    4.6174493129
 H    0.7169353448    0.5064260488    2.8450736068