21

 O    0.0013855393    1.4412098634    0.1976855592
 C    1.3067958962    1.9678073815   -0.1037850496
 C    2.0065109497    0.8628436667   -0.8876513994
 C    3.5141634679    0.4966255055   -0.7928462544
 C    3.3637974695   -0.9324618740   -0.2080124716
 C    2.3739846794   -0.6655023194    0.9563114730
 C    1.3914724339   -0.3876081621   -0.2211093845
 C   -0.0469444812    0.0173729080   -0.0231732252
 C    2.1272968610   -1.5260329325   -0.9717010799
 H    1.1739411204    2.8968023052   -0.6681599006
 H    1.8366170216    2.2107962380    0.8293022059
 H    1.6843601622    0.9173183295   -1.9337607144
 H    4.0077593476    0.5141123546   -1.7683025127
 H    4.0802788004    1.1481412299   -0.1191830830
 H    4.2728606515   -1.5175721641   -0.0649218547
 H    2.1037172043   -1.5715579689    1.5044358864
 H    2.6051343796    0.1411662536    1.6574230562
 H   -0.5252944957   -0.4506233078    0.8445020184
 H   -0.6601215429   -0.1975597660   -0.9111801970
 H    2.1252453324   -1.4998964110   -2.0659379696
 H    1.8748236930   -2.5279737901   -0.6160706423