20

 C   -0.1301676917    1.5561560071    0.4521542125
 C   -0.1072657156    0.0991203618    0.1177931932
 C   -0.3739034958   -0.4672136447   -1.0647825054
 C   -0.1562702971   -1.9456236992   -1.0268581223
 C   -1.0052386761   -2.8654614276   -1.8789142250
 O   -0.6566415341   -4.2360895545   -1.7143400619
 N    1.2654290550   -2.2978681338   -0.7440692450
 C    0.2739422687   -2.2502815184    0.3615056170
 C    0.2876996097   -0.9477262859    1.1509145373
 H    0.8675424879    1.9108057727    0.7407394133
 H   -0.4711098497    2.1596407468   -0.3935197621
 H   -0.7899289946    1.7574871671    1.3061266761
 H   -0.6666310845    0.0688145727   -1.9615569013
 H   -2.0577103664   -2.7617090995   -1.5877657722
 H   -0.9342613860   -2.5662267200   -2.9348947826
 H   -0.0564216048   -4.4806050284   -2.4233336911
 H    1.3727703461   -3.2872174609   -0.9731503122
 H    0.0078169370   -3.1856312560    0.8410463028
 H    1.2759457111   -0.7390619263    1.5797027810
 H   -0.4235657489   -0.9715492733    1.9880328582