23

 C    0.0088347263    1.4934068310   -0.0289380530
 C   -0.0324420520   -0.0057154631    0.0754270018
 C   -1.1528130953   -0.7216170480    0.0931718927
 C   -2.6170566786   -0.5172049919   -0.2490176147
 C   -2.5787932875   -1.9656601915   -0.8478315356
 C   -1.2636886489   -2.2249023396   -0.0446551352
 C    0.0024438651   -2.8409360479   -0.6262252963
 C    1.1917703777   -2.2723991997    0.1740924340
 C    1.2988218807   -0.7344496728    0.0767950127
 H    0.5780534614    1.8158012805   -0.9112260194
 H   -0.9938754896    1.9239641201   -0.0943930212
 H    0.5089732604    1.9387196710    0.8413228838
 H   -3.2653713065   -0.4625033496    0.6335505487
 H   -2.8792652092    0.3052085527   -0.9204303470
 H   -3.4320411588   -2.6166327641   -0.6424226950
 H   -2.3935061951   -1.9454354248   -1.9253538810
 H   -1.5089784847   -2.7032142392    0.9142314565
 H   -0.0039801507   -3.9358561634   -0.5800471622
 H    0.0978694740   -2.5607098830   -1.6835910246
 H    1.0673522992   -2.5599030886    1.2260718154
 H    2.1329941654   -2.7227560653   -0.1590920308
 H    1.8309455141   -0.4599043419   -0.8477727710
 H    1.9360407627   -0.3596128510    0.8903295914