14

 N   -0.1365999334    1.3166606390   -0.2246603494
 C   -0.0941678650   -0.0419892164   -0.0635527739
 C   -0.9161785503   -1.0632758600   -0.4590190600
 C   -0.3011063502   -2.2021100943    0.1181362121
 C   -0.7504437069   -3.6386777804    0.0721874876
 C   -1.0821038447   -4.0879736579   -1.2805654182
 N   -1.3588517457   -4.4355943797   -2.3467083522
 N    0.7846989031   -1.9140935944    0.7946878725
 O    0.9155831901   -0.5157419151    0.6789906047
 H    0.7481321612    1.7852456920   -0.0925183922
 H   -0.6444593565    1.6398648661   -1.0334555075
 H   -1.8020192826   -1.0138638237   -1.0682008311
 H    0.0423317724   -4.2695817266    0.4849272351
 H   -1.6362194917   -3.7764789187    0.7043868426