17

 O    0.1535501045    1.2978015184   -0.3057949201
 C    0.0948252282   -0.0865714676   -0.0035587361
 C   -1.3670957222   -0.5569104368    0.0086758597
 O   -2.0231783511   -0.1126038332   -1.1732693801
 C   -1.4582303806   -2.0918297756    0.0637116441
 C   -2.8149255522   -2.6182534101    0.1586224522
 C   -3.9263424178   -3.0662892585    0.2444714013
 C   -2.1406145105    0.1183507458    1.1495988379
 O   -1.6911350359    1.0109983540    1.8315899663
 H   -0.1885719396    1.7473666260    0.4796123340
 H    0.6354692437   -0.6072148281   -0.8003321548
 H    0.5783636018   -0.3161715858    0.9548616724
 H   -1.6211268344    0.7493397602   -1.3663104648
 H   -0.9811186341   -2.4724316099   -0.8476968807
 H   -0.8613667916   -2.4521149321    0.9119942025
 H   -4.9100034206   -3.4607934082    0.3120118546
 H   -3.1898868076   -0.2190081085    1.2531026416