15

 O    0.1546048136    1.3399864722   -0.1056521562
 C    0.0684901628   -0.0060455983   -0.1069174180
 C   -0.1658303827   -0.8591640455   -1.1591395457
 C    0.0975571877   -1.4086166488   -2.5443396396
 C    1.3806960445   -2.2253183471   -2.4948107278
 C    0.1244554855   -2.7884658610   -1.8821072650
 N   -0.1682086422   -2.1298146146   -0.5945985490
 C    0.1000160504   -2.0089162275    0.7295259959
 N    0.1596026709   -0.7253098537    1.0601844951
 H    0.2583845249    1.6008564030    0.8179041920
 H   -0.3842887753   -1.1252176963   -3.4691155072
 H    1.6821870695   -2.6938283277   -3.4286047055
 H    2.1988187407   -1.9089352250   -1.8556765171
 H   -0.3564422769   -3.7143736709   -2.1648096339
 H    0.1493318866   -2.8342509288    1.4227479420