15

 O   -0.0999182196    0.0689464092   -0.1519361132
 C   -0.1101920650    1.2583798090   -0.0333187740
 C   -1.1936520778    2.3507423884   -0.1233802460
 N   -0.1191455523    3.4048995360   -0.2098352532
 C    0.6623556556    3.3467591619    1.0201181478
 C    0.1191806775    3.0230167865    2.4100336048
 C   -0.6520953817    4.1329566200    2.9716606905
 N   -1.2621996826    5.0125671221    3.4055872531
 C    0.9584174574    2.3182283036   -0.0214259638
 H   -1.7262045004    2.2877999962   -1.0759579315
 H   -1.9179267045    2.4777276917    0.6845441798
 H    1.3874848248    4.1576669029    1.0434649156
 H   -0.4989599869    2.1219671472    2.4208304423
 H    0.9694803679    2.8188302749    3.0706320537
 H    1.8954472077    2.2982184704   -0.5667609662