19

 C    0.0537755234    1.6022586999    0.0219677374
 C    0.1496642054    0.0840999720    0.1591786693
 N    0.6022862119   -0.5390330645   -1.0813469614
 C    0.9274136679   -1.9634422188   -1.0921520053
 C   -0.2734537600   -2.8660824519   -0.9968049479
 C    0.0575229904   -2.2050761938   -2.3111926350
 C   -0.3196170068   -0.7152672646   -2.2527610322
 C   -1.7399253992   -0.4214338988   -2.0440002001
 N   -2.8563045823   -0.1834417639   -1.8577175453
 H    1.0141515319    2.0214131823   -0.2913988818
 H   -0.7029089642    1.8864859631   -0.7158068793
 H   -0.2327672626    2.0538429148    0.9764637048
 H    0.8982819563   -0.1767564653    0.9165581807
 H   -0.8132048625   -0.3203059417    0.5123942290
 H    1.9392751558   -2.2907531652   -0.8808897712
 H   -0.0496140073   -3.9276530040   -0.9621277978
 H   -1.1586051674   -2.5743930546   -0.4393790934
 H    0.2710549900   -2.7441091032   -3.2230094550
 H    0.0319851093   -0.1369653118   -3.1133681656