19

 C    0.1150909816    1.4072496771   -0.3454577219
 N    0.0671660465   -0.0152346833   -0.0176026290
 C   -1.0382949530   -0.5215519593    0.9025881344
 C   -0.1129604786   -1.7774932145    1.0953539366
 O    0.0833557625   -2.6283690744    0.0228090579
 C    0.7959056221   -0.5065822562    1.2304612546
 C   -0.3136457409    0.0872465918    2.1121421201
 C   -0.4991807198    1.2855637888    2.9402079527
 N   -0.5133141121   -0.0752502336    3.5407042789
 H    1.0914856994    1.6275590238   -0.7892074666
 H   -0.6471036150    1.6152762704   -1.1036910861
 H   -0.0422232143    2.0902222752    0.4989775945
 H   -2.0917351107   -0.4761217584    0.6187433593
 H   -0.2635572610   -2.3614782575    2.0024382328
 H    0.2153341814   -2.0291967223   -0.7297695242
 H    1.8798288519   -0.4425127624    1.3307183936
 H    0.3505837372    1.8977571492    3.2304347834
 H   -1.4384192368    1.8283114450    2.8612494339
 H   -1.4693021804   -0.3591822194    3.7434009352