19

 C   -0.1006037612    1.4551188724   -0.3721938237
 C    0.0571410333   -0.0272200185   -0.0465429700
 C    0.7171242620   -0.2971525144    1.2954376249
 O    1.0090104753    0.5920085192    2.0647618485
 C    1.0325506512   -1.7477894446    1.6196469220
 C    2.5540705439   -2.1262288929    1.4635848205
 C    2.4628511729   -2.7668637378    2.8596917630
 O    3.1428269388   -3.5553103195    3.4463346930
 C    1.1065817912   -2.1116129930    3.1327073466
 H    0.8726542731    1.9508358573   -0.4175636112
 H   -0.6018373422    1.5888632202   -1.3346538092
 H   -0.6861834257    1.9615754621    0.3988272117
 H   -0.9167685336   -0.5384851455   -0.0345814492
 H    0.6369904820   -0.5524143681   -0.8188120427
 H    0.4006336031   -2.4293552540    1.0465379879
 H    2.8437798744   -2.7797887907    0.6381254544
 H    3.2011312317   -1.2427696193    1.4735750918
 H    1.2207545932   -1.2009803919    3.7316093905
 H    0.3236560066   -2.7400753412    3.5618952514