17

 C   -0.0530229019    1.5450662901   -0.0010619830
 N    1.4649062821    1.3071701245   -0.0488463756
 C    1.2918510932    0.1768874244    0.9957596587
 C    1.8518378295   -0.9831449617    0.1653712425
 C    0.8164987037   -2.1382889233    0.3317230057
 C   -0.5755711903   -1.3801968694    0.3207302972
 C    0.0018296870    0.0141023120    0.1517944520
 C    1.2055760296   -0.0079528128   -0.8246513474
 H   -0.3745902162    2.1400169785    0.8600160958
 H   -0.4594248122    1.9582521722   -0.9300086560
 H    1.3604173534    0.3832670569    2.0658394591
 H    2.9092426771   -1.2516562490    0.1425206222
 H    0.8887132296   -2.8623033813   -0.4854411194
 H    0.9717703373   -2.6843798267    1.2670535051
 H   -1.2135353563   -1.6992821832   -0.5082041540
 H   -1.1300595130   -1.5204753054    1.2528312553
 H    1.1717004274   -0.0210439357   -1.9160021483