18

 C   -0.0010490776    1.3330781573   -0.0694648447
 O    0.1770319703   -0.0882802490   -0.0434576906
 C    0.6855731529   -0.5820456781    1.1005753604
 O    1.0135040259    0.0966449663    2.0445259357
 C    0.7981250899   -2.0617740861    1.0731621934
 C    0.8088341631   -2.8835095555   -0.1618781962
 N   -0.3796483655   -2.9762201064    0.6847904927
 C    0.0137071758   -3.8622443766    1.8446002990
 C    1.1351457078   -2.8953782002    2.3023859215
 H    0.9570744754    1.8438189898    0.0559897561
 H   -0.4309979879    1.5597046332   -1.0449732948
 H   -0.6755665010    1.6508906876    0.7295013317
 H    0.6256644720   -2.3662005033   -1.0967403901
 H    1.4916916936   -3.7301388073   -0.2204589983
 H   -0.8179878715   -3.9458689993    2.5453850760
 H    0.3192909627   -4.8645084653    1.5275611815
 H    2.1565800194   -3.2801097193    2.3623026224
 H    0.8984063746   -2.3709826478    3.2280655142