19

 O   -0.1386081459    1.3528177023    0.1763338656
 C    0.0482945379   -0.0475327844    0.2703125111
 C   -1.2822397132   -0.7682835146    0.1585805806
 O   -1.9697161078   -0.4200018787   -1.0898416817
 C   -2.1786563367   -1.8137372380   -1.3693092172
 C   -3.5254124818   -2.1847494339   -1.9280453819
 O   -3.6224061426   -3.5587389512   -2.2544897094
 C   -0.8741271099   -2.5107455577   -1.5888864915
 C   -1.3692473012   -2.2552065336   -0.1717481888
 H   -0.6366928498    1.5018012130   -0.6364709169
 H    0.7454263015   -0.4141814340   -0.4976100583
 H    0.4965221788   -0.2469537022    1.2501672654
 H   -1.9283911329   -0.4913546522    1.0002428985
 H   -4.3048011833   -1.9863696048   -1.1849668447
 H   -3.7326754243   -1.5345654143   -2.7931997704
 H   -3.0776002009   -3.7133313341   -3.0326697397
 H   -0.9490893686   -3.5540782347   -1.8782854560
 H   -0.0294830679   -1.9725052662   -2.0079300483
 H   -1.5488242013   -3.0537394410    0.5345325837