20

 C   -0.0217283488    1.5448861738    0.0142715705
 C   -0.0345014219    0.0437992072    0.0683104083
 C    1.1498319062   -0.8049289863   -0.3127828837
 C    0.5856218019   -0.9415885659    1.0796882964
 C    1.3956436087   -0.7289021385    2.3265080843
 C   -0.6700882123   -1.8317860328    0.9968772653
 O   -1.3910370119   -1.9811666270    2.2013596760
 C   -1.2933367293   -0.8319988890   -0.0314550719
 H    0.9549163566    1.9456390504    0.3061640469
 H   -0.2336854498    1.9075899340   -0.9992346211
 H   -0.7747314312    1.9792628163    0.6826130538
 H    1.0462528472   -1.6112130533   -1.0379813432
 H    2.1002969672   -0.2816045882   -0.3718678959
 H    2.0409884027    0.1511264989    2.2363113034
 H    0.7536181147   -0.5894282931    3.2025404360
 H    2.0404442781   -1.5918859924    2.5319260611
 H   -0.4988100578   -2.8526996934    0.6387335246
 H   -1.6108299930   -1.1017061500    2.5284682269
 H   -2.1837508847   -0.3607037756    0.3979773404
 H   -1.5498269926   -1.2145288252   -1.0258988681