16

 C    0.0113970245    1.4995054251    0.0504992820
 C    0.0109960906    0.0100329269   -0.0137158860
 C   -0.0531056146   -0.8389650454   -1.1167181842
 C   -0.1244635948   -0.4472202506   -2.4702054746
 N   -0.1740353912   -0.1569070575   -3.5929861643
 C   -0.0171129571   -2.1964902961   -0.6410641092
 N   -0.1354683362   -3.3273545721   -1.4500978485
 C    0.0708629496   -2.1287657810    0.7280302388
 N    0.0856732476   -0.7852380309    1.0812300740
 H    0.9253491507    1.8884012858    0.5150476990
 H   -0.0520930139    1.9116746105   -0.9585325180
 H   -0.8408292462    1.8834032992    0.6237849340
 H    0.1518030264   -3.1613806049   -2.4057925064
 H    0.3296218326   -4.1453631086   -1.0817944515
 H    0.1134533481   -2.9042581037    1.4739232103
 H    0.1435570540   -0.4465348967    2.0259034145