17

 O   -0.1737127023    1.4718656141   -0.0522203068
 C    0.0305194491    0.0661141590   -0.0625157737
 C   -1.3406235085   -0.5776153532    0.0939728248
 C   -1.2910478310   -2.0697988860    0.1014556056
 N   -0.2530708932   -2.7944892510   -0.0064616822
 C   -0.7050392900   -4.1918725782    0.0553751534
 C   -2.2445719872   -4.0984279108    0.2239433489
 O   -2.5035369332   -2.6779196955    0.2401198052
 H    0.6827320865    1.8972816776   -0.1502556511
 H    0.4933176923   -0.2732173217   -0.9996398299
 H    0.6866682348   -0.2579910154    0.7572132625
 H   -1.8105152239   -0.2321806610    1.0224309838
 H   -2.0018404265   -0.2472582165   -0.7158499863
 H   -0.4145303697   -4.7206402226   -0.8586994203
 H   -0.2217714135   -4.7054556553    0.8933534529
 H   -2.8040762188   -4.5408198983   -0.6052774395
 H   -2.6095946251   -4.5254952452    1.1624180626