21

 C    0.3035077143    0.7300615813   -0.7109826011
 O   -0.3319676838    0.0766796503    0.3650657818
 C    0.5334797951   -0.5359742980    1.3080794323
 C   -0.3371100831   -0.8945101701    2.5074245613
 C    1.2389968685   -1.7803419009    0.7283642226
 C    2.4815124754   -1.4578472942   -0.0748146301
 O    3.2988288811   -0.6199746977    0.2189276039
 O    2.5865269968   -2.2498099965   -1.1621345988
 C    3.7641836587   -2.0484554934   -1.9548682670
 H    0.7444056864    0.0234712646   -1.4302235507
 H   -0.4651784950    1.3081176386   -1.2307931487
 H    1.0957227449    1.4105923058   -0.3674000624
 H    1.3137266481    0.1784982222    1.6121475917
 H   -1.0896829442   -1.6391404407    2.2286164472
 H    0.2702323662   -1.3001622313    3.3217206284
 H   -0.8573891986   -0.0037824939    2.8676535504
 H    1.5751600456   -2.4105429214    1.5608752722
 H    0.5381630356   -2.3702935186    0.1330199305
 H    3.8019897750   -1.0248879829   -2.3360682737
 H    4.6640939958   -2.2344047281   -1.3632453325
 H    3.6932367374   -2.7603124153   -2.7772673374