16

 N    0.1713049078    1.4409646138    0.0757660479
 C    0.0360286027    0.0428836373   -0.0136594849
 C   -1.0333141130   -0.8267973711   -0.0552569642
 N   -0.6196005597   -2.1504379025   -0.0610610913
 C    0.6856850809   -2.0807009326   -0.0367053382
 C    1.8777719748   -2.9967631619   -0.0302788175
 C    3.0227993221   -1.9964549015    0.0359914813
 C    2.5432186323   -0.7453813476    0.0568764990
 N    1.1397865855   -0.7841478413    0.0064626627
 H    0.3580368590    1.8718395257   -0.8255993463
 H   -0.6737488907    1.8585786270    0.4460507588
 H   -2.0817385318   -0.5674779473   -0.0744854833
 H    1.8758534527   -3.6762139524    0.8307809185
 H    1.9298812449   -3.6285459849   -0.9257288984
 H    4.0670153548   -2.2685244970    0.0680008934
 H    3.0581751576    0.2017239464    0.1117389522