13

 O    0.1775599581    1.3594953025    0.0292212924
 C    0.1049380079    0.0165817834    0.0783302586
 N    0.2377179312   -0.7333832261   -1.0191306648
 N    0.0648597036   -2.0402858563   -0.6024725089
 C   -0.1063834799   -2.0635500099    0.7262713540
 C   -0.0994866710   -0.7939440512    1.2052599113
 O   -0.4391521333   -0.8078841656    2.5528913208
 C   -0.2719371207   -2.1852634140    2.8871358085
 O   -0.3975339527   -2.9911622676    1.6706130724
 H    0.3197900553    1.5978154063   -0.8959524633
 H    0.2423078969   -2.7881149817   -1.2481979113
 H    0.7376128740   -2.3552588483    3.2897807480
 H   -1.0484537394   -2.4922217915    3.5886314724