17

 O    0.0517065672    1.4968725166   -0.0267425401
 C    0.0633315392    0.0881346542    0.0285945967
 C   -1.3630219557   -0.5093672821    0.0027870229
 C   -2.0590528509   -0.0780548553   -1.2059199072
 C   -2.5967061781    0.3145109782   -2.2076536113
 C   -1.3618119328   -2.0661309117    0.1193094414
 O   -0.6723007654   -2.6857899402   -0.9580150699
 C   -0.8437228466   -2.4959695353    1.4204536284
 C   -0.3829193235   -2.8441596303    2.4748977821
 H   -0.4206195720    1.7453454780   -0.8307364358
 H    0.6443485335   -0.3452955033   -0.7989817380
 H    0.5470253450   -0.1835748638    0.9709261800
 H   -1.8989461954   -0.1191551005    0.8774315698
 H   -3.0914815289    0.6413329239   -3.0889221142
 H   -2.4018172983   -2.3980380893    0.0241754683
 H    0.2617120556   -2.7309369963   -0.7285537767
 H    0.0093379072   -3.1623097027    3.4096729135