15

 O    0.0672373386    0.0738572710   -0.5984506178
 C    0.0426287952    1.1752881403   -0.1385955089
 C   -1.0400366358    2.0223777484    0.5680028443
 C   -0.0214414409    3.1864972117    0.6220550942
 O    0.7543705818    3.1828133510    1.8365548684
 C    1.8519242198    2.4691820110    1.2037649578
 C    2.2668408031    1.2654542024    1.8981989062
 C    2.6158596467    0.2659580254    2.4664556442
 C    1.0513774212    2.3394200101   -0.1297710421
 H   -1.8966910305    2.2045104119   -0.0906275327
 H   -1.3963423187    1.6588635511    1.5343610546
 H   -0.3468086227    4.1851299449    0.3289665018
 H    2.7078951429    3.1449774436    1.0821722633
 H    2.9196398504   -0.6212063637    2.9657928338
 H    1.5692003987    2.5913675309   -1.0534530071