17

 C    0.0502543951    1.5231389893   -0.1107068190
 C   -0.0236619633    0.0389402975    0.1009295775
 O    0.3280817339   -0.7132057802   -1.1591269017
 C   -0.7990433683   -1.5157714213   -0.9862769505
 C   -0.9094553281   -2.0698153691    0.5297629233
 C    0.2914970098   -1.8737925377    1.3629218184
 C    0.7811051182   -0.6360987802    1.1734678027
 C   -1.4165666112   -0.7218695247    0.0864176394
 O   -2.6776230938   -0.1959471469    0.2192761021
 H    1.0723624181    1.8198907719   -0.3663330761
 H   -0.6154754625    1.8343105119   -0.9191703554
 H   -0.2407954684    2.0493491047    0.8043734106
 H   -1.1612413766   -2.1039647250   -1.8198747207
 H   -1.6049879794   -2.8912693138    0.6551996404
 H    0.7445330779   -2.6553425018    1.9609770038
 H    1.6929955165   -0.2262179801    1.5885223939
 H   -2.9131362678   -0.2023497444    1.1547880512