19

 C   -0.4902640680    1.5088130349    0.4856285994
 C   -0.2339250199    0.0209573534    0.2721889645
 C    0.6536708713   -0.3061602450   -0.9642968090
 C    1.8626240901   -0.5611906691   -0.0264640182
 C    0.8971394153   -0.6300918082    1.1792218696
 C    1.2680941318    0.1147966248    2.4245380936
 O    2.1457809327    0.9466713710    2.5078449222
 C    0.4362154308   -0.1659481462    3.6853343415
 O   -0.4685130602   -0.9580504032    3.7253411522
 H    0.4408352868    2.0849634690    0.4917627916
 H   -1.1199829744    1.8981937790   -0.3213476811
 H   -1.0091526785    1.6997514655    1.4314797070
 H   -1.1778452272   -0.5266571986    0.3220538851
 H    0.3263176298   -1.2113147062   -1.4820783228
 H    0.7609447554    0.4945304704   -1.7007697148
 H    2.4642075743   -1.4521799853   -0.2168789092
 H    2.5284862145    0.3003742576    0.0580540323
 H    0.5993088180   -1.6460025077    1.4481441854
 H    0.7561981574    0.4445186340    4.5567001606