20

 C   -0.4549876180    1.4200735157   -0.0242556186
 C   -0.1040032283   -0.0660680199   -0.0238088840
 C    1.1127896755   -0.4578596801   -0.9112413353
 C    2.0297627375   -0.5578839336    0.3592139712
 C    2.9464733744   -1.7762260966    0.4915483734
 C    2.7712784724    0.6756512671    0.5931785130
 N    3.3233483588    1.6676401602    0.8200371376
 C    0.7014376115   -0.5557424681    1.2216195137
 O    0.6571784888    0.1422049819    2.4268470350
 H    0.4286806263    2.0564064352    0.0905502617
 H   -0.9347308083    1.6979263181   -0.9680267578
 H   -1.1489843236    1.6536834560    0.7890916707
 H   -1.0086769880   -0.6508510585   -0.2115654387
 H    1.0062290067   -1.4377305711   -1.3823290553
 H    1.4198207221    0.2661257013   -1.6680549422
 H    3.7586768070   -1.7449793844   -0.2408375812
 H    3.3892798359   -1.8243290020    1.4906963690
 H    2.3695057321   -2.6906073096    0.3247723400
 H    0.4505935214   -1.5921712641    1.4650959284
 H    0.9919644755    1.0361446423    2.2845820292