17

 C    0.0065927124    1.3932789048    0.0855802971
 N   -0.0234079248   -0.0484373219   -0.0112464588
 C   -0.0626322862   -0.8038873640   -1.1542706245
 C    0.0001938703   -2.1130250607   -0.7488710432
 C    0.0036636171   -3.5537792907   -1.1668204433
 C    0.0967183480   -4.2579766386    0.1847047120
 C    0.1368284528   -3.3869231091    1.2117195468
 C    0.0785228747   -2.0385079467    0.6607358395
 N    0.0686139514   -0.7929592905    1.1207282372
 H    1.0146908547    1.7550677723    0.3156068312
 H   -0.3182185371    1.8218821370   -0.8645407912
 H   -0.6709087344    1.7180279783    0.8782148110
 H   -0.1329379848   -0.3304774089   -2.1212081626
 H   -0.9024024896   -3.8542022269   -1.7095680502
 H    0.8499358135   -3.8209210060   -1.8135739110
 H    0.1260892370   -5.3369788696    0.2706648838
 H    0.2018940549   -3.6352224089    2.2626129561