18

 C    0.0154798228    1.5153482943   -0.3011157726
 N    0.1545270970    0.0726657450   -0.1632563492
 C    1.4863440913   -0.4840979973   -0.0742923127
 C    0.5966314922   -0.4934980666    1.1344226034
 C    0.9079951755    0.3870530959    2.3281589198
 C   -0.1090915068   -1.8066758463    1.4113287134
 O   -0.1992772658   -2.6817322857    0.5779219535
 C   -0.6892199802   -1.9793406685    2.7343961217
 C   -1.1839539071   -2.1368209998    3.8208924888
 H    0.8328314754    2.1036987804    0.1418508959
 H   -0.0232800511    1.7473976318   -1.3700966705
 H   -0.9290298699    1.8369643236    0.1479994667
 H    1.6450759769   -1.4120112193   -0.6154510874
 H    2.3329079553    0.2021391267   -0.0391066951
 H    1.4999930800    1.2573564529    2.0409282789
 H   -0.0062092706    0.7374232038    2.8173044616
 H    1.4837764074   -0.1714082746    3.0722641061
 H   -1.6245296923   -2.2896558665    4.7762117177