17

 O    0.1753264371   -0.0486144766    0.2408450984
 C    0.0326681185    1.1354871653    0.1760716588
 C   -1.2498639464    1.9338937102   -0.0329851448
 C   -0.8757567976    3.3560780709    0.3696672766
 C   -1.6995029165    4.5661798383   -0.1165331704
 C   -2.0273886017    4.7709433396    1.3751575055
 O   -1.2113952482    3.6402744900    1.7514397261
 C    0.6408458258    3.3603516138    0.1304068878
 O    1.0808648502    2.0040898545    0.2694483375
 H   -1.5169665986    1.8758897629   -1.0946869646
 H   -2.0713953043    1.5227979653    0.5539171780
 H   -1.1118063484    5.3624683705   -0.5787267285
 H   -2.5446368835    4.3246920752   -0.7629702851
 H   -1.6653506341    5.7031774398    1.8227261776
 H   -3.0772294059    4.6254624622    1.6539108998
 H    0.8845628268    3.7154451305   -0.8789858552
 H    1.1601944267    3.9726807275    0.8702987925