18

 C    0.0868269114    1.2133564279    0.2805180997
 O   -0.2571899297   -0.0661528868   -0.2078662467
 C    0.5314070962   -0.4782249636   -1.2888343605
 C    1.9518042064   -1.0447245224   -0.8898057901
 C    1.4956174414   -2.4294784117   -1.3676357149
 C    0.1323836435   -1.8943258813   -1.7251036098
 N    1.0873988402   -2.2870914324   -2.7545890277
 C    0.9076676656   -3.3586407543   -3.6118005148
 O    1.6443287738   -4.3113832078   -3.6957597259
 H    1.1146524478    1.2436769494    0.6710456557
 H   -0.0083922558    1.9813014402   -0.5022023726
 H   -0.6051739379    1.4450781078    1.0929606495
 H    0.5305919660    0.2715215899   -2.0930140597
 H    2.8312834441   -0.6305308472   -1.3870054843
 H    2.0721108258   -1.0040686609    0.1948795065
 H    1.7790068873   -3.4066391604   -0.9983574653
 H   -0.8450855353   -2.3559360578   -1.6518015411
 H    0.0401652590   -3.2007873086   -4.2812241980