21

 C    0.1883999063    1.3491984001    0.3302288604
 C    0.2330864577   -0.1346199875   -0.0400099085
 O   -1.0603214420   -0.7175033346    0.1501082828
 C    0.5928184836   -0.3846049273   -1.5152908880
 C    2.0388569348    0.0635297287   -1.8854107528
 C    2.8638598274   -1.2065034441   -1.8718618723
 O    2.6897028968   -1.9892659905   -0.6806032147
 C    1.9695930452   -2.3678809350   -1.8670073902
 C    0.5318936949   -1.8981567077   -1.8819387766
 H    1.1617283330    1.8354191889    0.2187639224
 H   -0.5402630043    1.8755465500   -0.2951507976
 H   -0.1147881674    1.4699017992    1.3768064368
 H    0.9741763277   -0.6509501421    0.5859243962
 H   -1.2843444812   -0.6368052248    1.0821245535
 H   -0.1401966142    0.1697879985   -2.1104540954
 H    2.0683732875    0.4944463361   -2.8932790021
 H    2.4404934683    0.8197081710   -1.2046987848
 H    3.8642374356   -1.2255577384   -2.2979130731
 H    2.2497265360   -3.3305039987   -2.2881934732
 H   -0.1100245250   -2.4481575461   -1.1909427825
 H    0.1258694395   -2.0405198859   -2.8906672603