13

 N    0.0038520047    1.4411444764    0.0373707780
 C   -0.0452704813    0.0520246589   -0.0425723294
 C   -1.1475603660   -0.7132087856   -0.0780964159
 O   -1.1224680372   -2.0706457357   -0.2209088608
 C    0.0466086469   -2.7341826958   -0.3809158404
 N    0.0288597491   -3.9742893591   -0.5664178749
 O    1.2005402488   -1.9918830539   -0.3166426327
 C    1.2505286041   -0.6230262677   -0.1423415242
 O    2.3192019073   -0.0830103274   -0.0748425643
 H    0.9232711764    1.7614652082    0.3136838142
 H   -0.7306203751    1.8701484222    0.5814484514
 H   -2.1632476022   -0.3500408253    0.0029982057
 H    0.9756891846   -4.3332020751   -0.6604968768