16

 O   -0.0568321626    0.1571973236    1.2941513048
 C   -0.0415424243    1.1944984246    0.7004206149
 C   -1.1431526850    2.0934003448    0.0654897594
 C    0.0030191175    2.8539185027   -0.6185302295
 N    0.7945575113    3.4318057645    0.4733306537
 C    1.0582888396    2.0092269005    0.0436184163
 C    2.4125732347    1.5960283447   -0.3975195378
 C    2.6815865861    1.1694799634   -1.7780658400
 O    3.0363095683    2.4827889572   -1.3323021608
 H   -1.7702400337    1.5030306634   -0.6085822547
 H   -1.7634682625    2.6803145603    0.7454435411
 H    0.0259197194    3.2629947485   -1.6196817132
 H    1.5540999894    3.9640363557    0.0418606899
 H    3.0715126087    1.2333390163    0.3914523104
 H    3.5205496020    0.5068094237   -1.9822351443
 H    1.8606210913    1.1260792161   -2.4908894405