15

 O    0.1421341334    1.4111764726   -0.0484633660
 C    0.0641233988    0.0191058479   -0.0832171241
 C   -1.3719379650   -0.4613172609   -0.0420036014
 N   -2.3150868208    0.4310769757    0.0179417369
 C   -3.6052701210   -0.0387571653    0.0539267904
 C   -3.9423756661   -1.3536008452    0.0309465024
 C   -2.9130715712   -2.3716191043   -0.0356016332
 O   -3.0421849185   -3.5778750420   -0.0634532423
 N   -1.6163261066   -1.7914877782   -0.0689507366
 H   -0.7778169216    1.7218431226   -0.0049687083
 H    0.5370522006   -0.3794168638   -0.9965961532
 H    0.6036726025   -0.4271904902    0.7691032360
 H   -4.3718523363    0.7291552901    0.1037637656
 H   -4.9720619670   -1.6846476172    0.0608887531
 H   -0.8530413912   -2.4560178917   -0.1158754794