15

 C    0.0135505328    1.3524236344    0.1106385802
 O    0.0636692296   -0.0608666186    0.0217975885
 C    0.6094223320   -0.5971034694   -1.0843158912
 C    1.1184211617    0.0966187403   -2.1267953318
 O    1.6669091282   -0.4695895063   -3.2381969693
 N    1.7311255141   -1.8385001247   -3.3564246097
 C    1.2560142966   -2.5328369086   -2.3829105160
 C    0.6434362061   -2.0541557488   -1.1402729879
 N    0.1827310460   -2.7912676324   -0.1957190132
 H    1.0202799563    1.7901398587    0.0864199287
 H   -0.5856966263    1.7827843887   -0.7026121370
 H   -0.4574435420    1.5796665042    1.0671788357
 H    1.1524732425    1.1734188644   -2.2059273485
 H    1.3362330880   -3.6073183358   -2.5364013258
 H    0.3025933045   -3.7796279862   -0.4307073228