18

 C   -0.0217269804    1.5229517018    0.0009177566
 C   -0.0006770645    0.0103543525    0.0358310212
 C   -1.0702939925   -0.6442833502   -0.8325537398
 N   -0.9826420755   -2.0445814896   -1.1758483383
 C   -0.4234214334   -2.9813188994   -0.5517646525
 O    0.2198003900   -3.0804196016    0.6402988784
 C    0.1163144569   -2.0673502417    1.6313136262
 C    0.5587275276   -0.6836769231    1.1994877489
 O    1.3149789800   -0.5738283600   -0.0046528421
 H    0.7500278687    1.9355780585    0.6549701387
 H    0.1628313451    1.8848851382   -1.0160679014
 H   -0.9952571967    1.9087118410    0.3228220713
 H   -2.0492881096   -0.4477287908   -0.3700158725
 H   -1.0947211649   -0.0973224454   -1.7846176410
 H   -0.4058758166   -3.9723787079   -1.0068499091
 H   -0.9133362085   -2.0209003416    2.0148758043
 H    0.7560005637   -2.4216989545    2.4440853094
 H    0.9254399008   -0.0740116661    2.0287629317