15

 C    0.3499355139    1.2203449476    0.1791015791
 C   -0.3291393588   -0.0899890861   -0.1024337117
 O   -1.3427759127   -0.4973732286    0.3866021563
 O    0.4035597293   -0.7947889603   -1.0427116775
 C   -0.0637837400   -2.0190766456   -1.4257584074
 N    0.6061125034   -2.6542242643   -2.2800710620
 C    0.1525642415   -3.9599736766   -2.7208548360
 C   -1.0942302411   -4.4738574081   -2.1266238228
 N   -2.0743559110   -4.8472534567   -1.6415323746
 H    1.3648195164    1.0409687763    0.5452607387
 H    0.4372815937    1.7988377490   -0.7449982077
 H   -0.2252537539    1.7753611577    0.9185332740
 H   -0.9909910916   -2.3211550242   -0.9368616189
 H    0.0292110016   -3.9333950901   -3.8102048636
 H    0.9509249595   -4.6865230800   -2.5275888057