18

 O   -0.1061877060    1.4736793702    0.0439611317
 C    0.0023649085    0.0617312703    0.0646515791
 C   -1.3672945663   -0.6181253765   -0.0144566844
 C   -1.2970302691   -2.1615510089   -0.0899029095
 C   -0.6468528963   -2.7224039278    1.0990581890
 N   -0.1264866051   -3.1623722244    2.0324546385
 C   -2.6905672397   -2.7476150514   -0.3006908683
 C   -3.1764970311   -3.9763363402    0.3352099941
 O   -3.5829773363   -2.6823141890    0.8017489653
 H   -0.4892030350    1.7547519027    0.8810523236
 H    0.6011899805   -0.2038714706   -0.8144238930
 H    0.5520103795   -0.2905589061    0.9496080187
 H   -1.9767968402   -0.3424012422    0.8537353365
 H   -1.8894914062   -0.2535885511   -0.9056650752
 H   -0.6849019555   -2.4459443993   -0.9574708792
 H   -3.1273298712   -2.4504722282   -1.2557928610
 H   -3.9538841059   -4.5577990141   -0.1571013003
 H   -2.5275527948   -4.5271715634    1.0118926645