19

 C    0.0061904383    1.4789761247    0.0294737250
 C    0.0056275590   -0.0194779803   -0.0262010999
 C   -0.9433640427   -0.8849749860    0.8153915029
 C   -1.0740078483   -2.2479518161    0.1325613150
 C    0.4264592360   -2.0839709247   -0.2088659093
 O    1.2518526060   -3.1529859338   -0.5111397878
 C    0.5522120229   -1.0182164267    0.9772289897
 C    0.4669025756   -0.8867725807   -1.1850786975
 O   -0.3529139593   -0.8929685710   -2.3321812943
 H    0.9858916834    1.8876295334   -0.2431485416
 H   -0.7348027064    1.8980613589   -0.6600418676
 H   -0.2350760409    1.8364097365    1.0362235173
 H   -1.6392781758   -0.4229144670    1.5036503133
 H   -1.2296048188   -3.0434943316    0.8702735041
 H   -1.7642018755   -2.3594244955   -0.7087301375
 H    1.0710527893   -3.8665955059    0.1097443026
 H    1.2202844319   -0.8914724210    1.8164304804
 H    1.5133690792   -0.6575919775   -1.4352932240
 H    0.0523821662   -1.4734323757   -2.9847724807