20

 C   -0.0042028821    1.8188895133    0.0800476220
 C   -0.1177805753    0.3086875425    0.1191703438
 N    1.1181443978   -0.4629528968   -0.0824712355
 C    0.4239066904   -0.5310130756    1.2258510452
 C    1.2286813949   -0.0256133642    2.4010267073
 O    2.3335927668   -0.8777188963    2.6531461259
 C   -1.3625411369   -0.2087271305   -0.5572781658
 C   -1.3770941739   -0.5688355353   -1.9814103341
 O   -1.3516977021   -1.5770036292   -0.9602525804
 H    0.9409683351    2.1571713873    0.5057343283
 H   -0.0496233583    2.1748626404   -0.9550703074
 H   -0.8237623061    2.2905016950    0.6339632579
 H    0.8891785055   -1.3073756027   -0.6057871722
 H   -0.1163635480   -1.4557163679    1.4219030046
 H    1.5586261719    1.0086268686    2.2311105429
 H    0.6179239234   -0.0334846968    3.3102064400
 H    2.8088782026   -0.9423358396    1.8158601786
 H   -2.3014627975    0.1184358192   -0.1072766762
 H   -2.3033030810   -0.5102355744   -2.5495058084
 H   -0.4619022973   -0.4791288969   -2.5641078164