21

 C   -0.0713513606    1.5085226445   -0.1523652911
 C   -0.0569497298   -0.0124392264   -0.0477461216
 O    0.7999442079   -0.4736867159    0.9935254006
 C   -1.4702684843   -0.5948602151    0.1553500062
 O   -2.3401734843   -0.1699538438   -0.8940241870
 C   -3.0008139890   -1.2927224229   -1.4967464810
 C   -2.8189358530   -1.2481859633   -3.0131734245
 C   -2.3862877498   -2.4892085601   -0.8181842271
 C   -1.5248087327   -2.0970811573    0.1120869360
 H    0.9403383364    1.8903249575   -0.3147451340
 H   -0.7146146131    1.8272385802   -0.9758490268
 H   -0.4647561953    1.9548253172    0.7708326673
 H    0.3538574314   -0.4426171027   -0.9683988857
 H    0.5778965483    0.0171640974    1.7925956156
 H   -1.8484298307   -0.2105618212    1.1225976192
 H   -4.0793504554   -1.2275367780   -1.2712925379
 H   -1.7600913449   -1.3339293260   -3.2740208059
 H   -3.3661177413   -2.0680116109   -3.4905549895
 H   -3.2016971244   -0.3038434522   -3.4105587780
 H   -2.6415620698   -3.5076130296   -1.0837082047
 H   -0.9208779357   -2.7170810215    0.7600662001