22

 C   -0.1630118327    1.3359322166   -0.2940379680
 N    0.2159922575   -0.0451337234   -0.0057544232
 C    1.6244677136   -0.4782269934   -0.0490093924
 C    2.7814276954    0.4337088786   -0.3034639013
 C    3.9684472211   -0.2243041482   -0.9886204827
 O    2.8028106251    1.6140049905   -0.0073814332
 C    0.8218610736   -0.4314644379    1.2497529205
 C    1.1396603167    0.5865569565    2.3288395415
 C    0.3307220620   -1.7651819233    1.7873837662
 H    0.5605420763    2.0933518807    0.0179408937
 H   -0.3119552619    1.4283720317   -1.3744761000
 H   -1.1250513196    1.5259443391    0.1924083685
 H    1.7496212101   -1.4600071897   -0.5033566379
 H    3.6882216595   -0.5526637859   -1.9963511916
 H    4.7942956922    0.4846361252   -1.0528291973
 H    4.2847179067   -1.1191341218   -0.4405941770
 H    1.6386900544    1.4712359572    1.9372837862
 H    0.2145171634    0.8921368752    2.8312581727
 H    1.7870228653    0.1346534296    3.0875437971
 H    1.0951797887   -2.2436715203    2.4091420891
 H   -0.5603332744   -1.6166447620    2.4083530291
 H    0.0634186969   -2.4383490249    0.9698942199