19

 C   -0.2321978731    1.5773145774    0.0029947294
 C    0.0442426276    0.0914854967   -0.0365600075
 C   -0.0157176780   -0.5797129277   -1.2229093310
 C    0.1027690607   -1.9977199258   -1.4383685910
 C    0.7352624485   -2.9025509893   -0.6619863250
 C    1.6211208652   -2.5440123698    0.5016123191
 O    2.8328213606   -1.9014738399    0.0889135557
 C    0.8480646458   -1.7279532634    1.5043067957
 C    0.2430233348   -0.5510530520    1.2444661401
 H    0.6161832809    2.1283720567    0.4262440241
 H   -0.4326759094    1.9776606707   -0.9936554988
 H   -1.0980821460    1.7988925103    0.6388976490
 H   -0.2846704753    0.0040762676   -2.1009174900
 H   -0.3784963992   -2.3664141245   -2.3425171371
 H    0.6716758905   -3.9534504669   -0.9305339542
 H    1.9633891063   -3.4626571699    0.9849548710
 H    2.5759983513   -1.1017969746   -0.3840380014
 H    0.8405402214   -2.0912409793    2.5288249410
 H   -0.1505254128    0.0000671735    2.0977842909