21

 C    0.0231662958    1.6810531076    0.1567063148
 C    1.5252832149    1.9537998927   -0.0712579691
 C    2.2054563606    0.7249908537    0.5456157801
 C    1.3217267172   -0.4463465171    0.0637526625
 C   -0.1212820923    0.1348448573    0.1274389417
 O    1.6526771121   -0.7435025958   -1.3117717241
 C    2.0928493183   -2.0894036027   -1.4466229851
 C    1.9669290379   -2.6830367804   -0.0720387167
 C    1.5324608523   -1.7552536806    0.7716602155
 H   -0.2815478369    2.0698844676    1.1344554686
 H   -0.6071575635    2.1728342147   -0.5887909306
 H    1.7465307540    1.9821286188   -1.1432443931
 H    1.8583313650    2.9000282277    0.3640868409
 H    3.2471449697    0.5853175609    0.2469672460
 H    2.1683614924    0.7810321950    1.6417150516
 H   -0.6441838579   -0.2327169393    1.0156708602
 H   -0.6719117967   -0.2223803221   -0.7451841486
 H    1.4732338818   -2.6128950635   -2.1917768500
 H    3.1305189755   -2.1168614018   -1.8179347104
 H    2.2097521139   -3.7130709030    0.1565524692
 H    1.3464919759   -1.8747609697    1.8318864467