19

 C   -1.2385945445    0.9402005020    0.4352129656
 C   -0.0551540768    0.0126277730    0.2199347794
 O    0.8252569956   -0.0981648588    1.0459274001
 C   -0.0585756569   -0.7460496399   -1.0895321876
 C    1.1212058980   -1.6325033713   -1.5532449486
 C    0.7930597425   -2.6951493925   -0.4835350360
 C   -0.5217292820   -2.2572727394   -1.1799559238
 C   -1.9039205161   -2.8238907442   -1.0966868334
 O    0.1883927306   -2.3225528075   -2.4803995972
 H   -1.2027724156    1.7622390694   -0.2895042497
 H   -2.1836511599    0.4121603960    0.2646420159
 H   -1.2132582696    1.3476319011    1.4464926665
 H   -0.5023394431   -0.1609666569   -1.8996292227
 H    2.0850522226   -1.3186921514   -1.9509440919
 H    1.1127425840   -3.7063808862   -0.7387539885
 H    0.9504446087   -2.4325297223    0.5611697040
 H   -2.3057051931   -2.7049257418   -0.0856244244
 H   -2.5718593059   -2.3208406243   -1.8023509877
 H   -1.8867493785   -3.8914552449   -1.3365849902