22

 C    0.3215914795    1.4355745362   -0.3138960355
 C    0.0294712063   -0.0438480326   -0.0455272550
 O    0.4978976128   -0.8865083485   -1.0969049057
 C   -0.2782428600   -0.8956493887   -2.2554303210
 C    0.0962539628   -0.0221032123   -3.4271521171
 C    0.3452746409   -1.5173598679   -3.4619127266
 C    0.6975182365   -0.5183125503    1.2350017512
 C    0.9689039689   -1.9526135802    1.4774258500
 N    2.0803185524   -1.0162825880    1.2073266416
 H    1.3982649151    1.5977292879   -0.4227017010
 H   -0.1790758079    1.7796984113   -1.2217891254
 H   -0.0341101645    2.0460904950    0.5223228117
 H   -1.0600273954   -0.1796760931    0.0597979915
 H   -1.3380740778   -1.0762235764   -2.0729634953
 H   -0.6943914658    0.3942043150   -4.0421901748
 H    0.9643473721    0.6149240868   -3.3052432900
 H    1.3723748556   -1.8477863238   -3.3561922490
 H   -0.2697439673   -2.1411807896   -4.1003106067
 H    0.4778314307    0.1196722738    2.0893502507
 H    0.9365267566   -2.3472767671    2.4891131600
 H    0.6942083903   -2.6516825783    0.6941138606
 H    2.3489047782   -1.1287202292    0.2314927157