21

 C    0.2496490861    1.3057932153    0.1685504895
 O    0.0891785596   -0.0834031897    0.0010503449
 C   -1.2661261288   -0.5066424237   -0.0701602413
 C   -1.2749367483   -1.8569520706   -0.7935548244
 C   -2.6685328186   -2.3377399319   -1.2050701209
 O   -3.4958878290   -2.7489706070   -0.1346397615
 C   -4.0480764292   -1.7006123709    0.6422203158
 C   -3.0888324366   -1.0463787279    1.6148310287
 C   -1.8943501667   -0.5450301332    1.3080756352
 H    1.3235764724    1.5067645343    0.1914579257
 H   -0.2003577074    1.8684876826   -0.6650675485
 H   -0.1947713192    1.6741428513    1.1055218071
 H   -1.8288760384    0.2127243758   -0.6960076113
 H   -0.6665470594   -1.7473819036   -1.6987899248
 H   -0.7972299385   -2.6133127288   -0.1627899847
 H   -3.1760802925   -1.5536119175   -1.7947653164
 H   -2.5680929111   -3.2164047294   -1.8500474817
 H   -4.4906749420   -0.9373785871   -0.0236948897
 H   -4.8731311116   -2.1561812715    1.1974374980
 H   -3.4229179382   -0.9973221602    2.6483655686
 H   -1.2785505027   -0.1233634162    2.0988325617