21

 C   -0.3228903501    1.1779691897    0.0346565921
 O    0.0801393423   -0.1730614541   -0.0232815586
 C    0.7973595821   -0.6171715976    1.1339078085
 C   -0.1065474662   -0.7790525460    2.3902001521
 C    0.2851254524   -2.1216525258    3.0499618665
 C    1.0163219737   -2.9229421332    1.9807355647
 C    0.3640165990   -3.0850824825    0.6327947589
 O   -0.9909351054   -2.7930210123    0.4496131138
 C    1.3767500644   -1.9873623617    0.8363083623
 H    0.5414901999    1.8458676984    0.1718305295
 H   -0.8042798225    1.4152225954   -0.9171785640
 H   -1.0370282274    1.3659693751    0.8490113459
 H    1.6097200552    0.0996703261    1.3288949914
 H   -0.0008414662    0.0610415162    3.0820053051
 H   -1.1463599093   -0.8113633286    2.0593213555
 H    0.9639436015   -1.9559268023    3.8936734342
 H   -0.5906577099   -2.6493177687    3.4407358563
 H    1.7040019234   -3.6978760853    2.3025566270
 H    0.7066562248   -3.9363907614    0.0455600909
 H   -1.0276145604   -1.9784815506   -0.0697575604
 H    2.3225310689   -2.0364356108    0.3089986783