23

 C    0.0609190347    1.6357755717   -0.0812960822
 C    0.0572986701    0.1093242872   -0.0414604377
 C    1.1678412956   -0.6142747015   -0.9006178932
 C    1.6876454627   -1.3043262621    0.3656324628
 C    2.1368872358   -0.2780066995    1.3645923177
 C    0.6660380153   -0.5519640101    1.2197711941
 C   -1.2999621857   -0.5183532003   -0.3248157446
 C   -2.6137325285    0.0712755470    0.1253313254
 C   -2.2764880655    0.0070452775   -1.3463953495
 H    1.0595923346    2.0283227566    0.1277406686
 H   -0.2331667943    2.0152278932   -1.0657750880
 H   -0.6177439202    2.0625310820    0.6643968720
 H    0.7370962322   -1.2960669424   -1.6372279175
 H    1.8863813879    0.0381479580   -1.4095150548
 H    1.9979962032   -2.3400853369    0.4322033701
 H    2.5851214551   -0.6728567944    2.2712264845
 H    2.5752836567    0.6599045479    1.0321892217
 H    0.0736776425   -0.9151172865    2.0525928535
 H   -1.2567406370   -1.6039504008   -0.2637198028
 H   -3.3704264966   -0.6016358587    0.5140865044
 H   -2.6141278578    1.0489712183    0.5936860550
 H   -2.0531082928    0.9417095417   -1.8482702377
 H   -2.8018159181   -0.7097491579   -1.9682161918