20

 C   -0.0292203434    1.5463999901    0.1232111377
 C   -0.2182251355    0.0691178011   -0.2162497291
 C    0.7922903533   -0.4369824822   -1.2348723441
 O    1.5487103900    0.3042057568   -1.8103516549
 C    0.8639955615   -1.9748887304   -1.4804925570
 C    1.8406533795   -2.5556334319   -0.4221148886
 C   -0.5075555696   -2.6808513469   -1.3955882020
 C    1.4289285502   -2.2068414830   -2.8181804304
 N    1.8463485925   -2.4464450148   -3.8682001769
 H    0.9555395540    1.7246034093    0.5629107225
 H   -0.1003336261    2.1628546819   -0.7754684799
 H   -0.7911962650    1.8750579892    0.8349313598
 H   -0.1662076748   -0.5565002507    0.6839247699
 H   -1.2204726245   -0.1097542038   -0.6286071915
 H    1.4468390454   -2.3930494568    0.5853313272
 H    1.9604155625   -3.6312984080   -0.5745394302
 H    2.8209749360   -2.0806814626   -0.4997922284
 H   -1.2155660347   -2.2665351831   -2.1179754300
 H   -0.3891454414   -3.7454917780   -1.6123592423
 H   -0.9304560399   -2.5849105464   -0.3928476717