18

 C   -0.0179267164    1.5421040230   -0.0589579318
 C    1.5344772078    1.3777263450    0.0174847409
 C    1.2222215512    0.1819689479    0.9667599480
 C   -0.0032595171   -0.0185105470    0.0252365152
 C    0.5159925620   -0.5218517003   -1.3836199949
 C    2.0484941148   -0.7410452634   -1.3756331204
 C    1.9777287074    0.8053785736   -1.3909889378
 O    0.7708670724    0.6614420433   -2.2075031123
 H   -0.4144645518    1.9839176379    0.8577301768
 H   -0.4509695073    2.0141634873   -0.9360873023
 H    2.1645413045    2.1999569363    0.3614932740
 H    1.9487002230   -0.6173496150    1.1080814559
 H    0.9048657198    0.5369493581    1.9507962283
 H   -0.8803844693   -0.5647798920    0.3768436663
 H   -0.1519082559   -1.2337855360   -1.8720255289
 H    2.5471215014   -1.2857662301   -0.5761654992
 H    2.3802303751   -1.1117897901   -2.3463581437
 H    2.7479130382    1.3991994613   -1.8866443439