19

 C    0.7952398024    0.4720747396    0.8215910323
 O   -0.3088421913    0.6246396168   -0.0807439994
 C   -1.3182843925   -0.2620431617   -0.0709548193
 N   -1.0224230495   -1.6140721122    0.2350400331
 C   -0.0224836109   -2.3959645397   -0.3300436544
 C   -0.2294229695   -3.8851272100   -0.1044492235
 O    0.9263538004   -1.9438219184   -0.9333419323
 N   -2.5282326954    0.0282245151   -0.2993332648
 C   -2.9018533284    1.4187186939   -0.4819253037
 H    1.2912279603    1.4438516004    0.8373179497
 H    0.4447042386    0.2292072431    1.8297105962
 H    1.4818883947   -0.2933689190    0.4591715062
 H   -1.8687845447   -2.1031399146    0.4913791044
 H   -0.4840900594   -4.1031840394    0.9370092198
 H   -1.0496594255   -4.2487930340   -0.7333659572
 H    0.6840962724   -4.4108863024   -0.3795578569
 H   -3.8884514509    1.5824690842   -0.0369132847
 H   -2.1871057046    2.1284229358   -0.0488201587
 H   -2.9904160963    1.6444557925   -1.5520617568