16

 O    0.0040619343    0.0845185602   -0.4291286086
 C    0.0045917358    1.2144486646   -0.0227944251
 C   -1.2317197622    2.1042987524    0.1860767783
 N   -0.8249634614    3.3034027700    0.9191619927
 C   -0.2211659093    3.0103491561    2.2174732132
 C    0.6780157598    3.2726454581    1.0516186815
 C    1.2398818292    2.0417556810    0.3583665525
 C    1.3849819036    4.5156371029    0.9267197594
 C    2.0154975071    5.5334717401    0.8192186695
 H   -1.6248594422    2.3932488326   -0.7964537258
 H   -2.0214546247    1.5561399151    0.7088436138
 H   -0.3545043070    3.7827039402    2.9679948735
 H   -0.2622643922    1.9893027586    2.5979555637
 H    1.9214251346    1.4527336498    0.9768814134
 H    1.7779473241    2.3140308357   -0.5562954738
 H    2.5586147005    6.4412819727    0.7259961020