18

 C    0.0528886811   -1.1751577547   -0.0751855721
 C    0.0220705469    0.0276387970   -0.0477279354
 C    0.0058307303    1.4634834618    0.0127218333
 C   -0.3782250041    2.2714708018    1.2806791731
 N    0.4213798144    3.4043501128    0.7196338153
 C   -0.0529345863    3.5940642936   -0.7441744723
 C    1.3849584256    3.2611235106   -1.1971529250
 C    1.3222577510    2.3762507827    0.0421531473
 C   -0.7961315981    2.2723511643   -1.0390658780
 H    0.0766547516   -2.2362673296   -0.1024114725
 H   -1.4398161375    2.4608295179    1.4678517313
 H    0.1080705543    1.9135972813    2.1916934239
 H   -0.5436620693    4.5372786444   -0.9787596699
 H    1.5293168754    2.8139650674   -2.1826954918
 H    2.0770060276    4.0906249975   -1.0382682160
 H    2.1842372521    1.9939104857    0.5891842551
 H   -0.6545834244    1.9285055545   -2.0660281983
 H   -1.8655339006    2.2838257610   -0.8154889580