20

 C   -0.3447853174    1.4782466960   -0.0662019971
 C    0.1533955037    0.0371398062    0.1119719561
 C    0.8617310040   -0.5019958197   -1.1075018090
 N    0.1031830534   -0.8808107723   -2.3214500020
 C    0.8151917844   -1.9242184413   -1.5561334866
 C    2.1705044015   -2.3362890028   -2.1311852979
 C    3.0422105264   -1.0861770384   -2.0339158764
 O    2.6030621154    0.0250533561   -2.8176443217
 C    2.2606574333    0.0096459710   -1.4329485867
 H    0.4842046680    2.1630911593   -0.2717922921
 H   -1.0452706121    1.5522317987   -0.9039292421
 H   -0.8545885125    1.8311425624    0.8352013870
 H    0.8312665196   -0.0139465826    0.9745396020
 H   -0.6916286899   -0.6208552458    0.3513460813
 H   -0.8870428755   -0.9227413152   -2.0835850205
 H    0.2246256087   -2.6647035805   -1.0233929719
 H    2.6088303815   -3.1336131453   -1.5200226373
 H    2.0942988336   -2.7009738092   -3.1601492033
 H    4.1215882643   -1.1813185811   -1.9316899441
 H    2.6981798596    0.7995352246   -0.8270232278