20

 C   -0.4146060229    1.3719224663   -0.0131858805
 C   -0.2669130809   -0.1503648711    0.1019408364
 C    0.7272884350   -0.5634738488    1.1883095264
 C    0.1708643331   -0.5693055484    2.6557734500
 O   -0.9057603574    0.2522222402    3.0170531506
 C   -0.0435941164   -2.1001293842    2.5620608260
 C    0.9443631856   -2.1143829117    1.3556645339
 C    0.6375918069   -2.9825131334    0.2334267211
 N    0.3758347071   -3.6612654628   -0.6659522473
 H    0.5423481340    1.8348893009   -0.2774695858
 H   -1.1373820667    1.6364779890   -0.7907397625
 H   -0.7462268983    1.8110109910    0.9313631271
 H   -1.2485897881   -0.6107130356    0.2832798748
 H    0.0685521015   -0.5634734347   -0.8561677737
 H    1.6584665509   -0.0054412523    1.0541018525
 H    0.9694318820   -0.3285670501    3.3632775425
 H   -1.6647365970    0.0198925206    2.4719007012
 H    0.2076442606   -2.7165104734    3.4264806711
 H   -1.0599226064   -2.3413255794    2.2378007832
 H    1.9640501374   -2.3234570619    1.6902069730