18

 C   -0.2517264095    1.5312688857   -0.0428376040
 C   -0.0178317219    0.0249746925   -0.0178462928
 O   -1.2284511449   -0.6857988590   -0.1768349289
 C    1.1810338442   -0.4349788779   -0.9054675415
 C    2.0790871912   -0.4644853865    0.3715929311
 C    0.7691099640   -0.4688022093    1.2198270563
 C    2.9782057024   -1.6570280484    0.5228598542
 O    4.1634478405   -1.6178115061    0.7320588192
 H    0.6757273541    2.0859156116    0.1295775209
 H   -0.6450771456    1.8453197983   -1.0180634936
 H   -0.9737206652    1.8149395947    0.7291510381
 H   -1.7269897566   -0.2837027667   -0.8965202991
 H    0.9955878536   -1.4442117628   -1.2852016269
 H    1.5036069924    0.2104933974   -1.7261227734
 H    2.6677516707    0.4458362956    0.4983770211
 H    0.7508208634    0.1470549174    2.1214533610
 H    0.4595801182   -1.4877046506    1.4707158358
 H    2.4441839191   -2.6334531758    0.4195460526