15

 N    0.0844009931   -1.1161646323   -0.0155378309
 C    0.0229544587    0.0376391110   -0.0479034052
 C   -0.1032410968    1.4680602725   -0.0838335458
 C   -1.2989018359    2.1480353617    0.4846677962
 C   -1.3613905671    3.3966062113    0.0075674829
 C   -0.1274546551    3.6740333379   -0.8113500539
 C    1.0733453418    3.6217819616    0.2063755303
 N    1.2896245029    2.1678094834   -0.0380785838
 C    0.4057169975    2.2729804026   -1.2285498442
 H   -1.9509293107    1.6779925794    1.2075064774
 H   -2.0641851394    4.1628682434    0.3095224890
 H   -0.1637511818    4.4908994906   -1.5282760011
 H    1.9570856212    4.1346189960   -0.1788879309
 H    0.8791230209    3.9154290263    1.2414275318
 H    0.6659912807    1.8854593944   -2.2080151119