22

 C   -0.3621639394    1.4326421926    0.0143343206
 C    0.0495829334   -0.0272751693   -0.1013313260
 C    1.3895130250   -0.3454286027   -0.7978595713
 O    1.8738914385   -1.0471511899    0.3645973106
 C    0.6936438944   -0.7190292586    1.1201199750
 C    0.9374848386   -0.0542054861    2.4963595575
 N    0.6572206713   -1.3488267062    3.1459331905
 C   -0.1253312434   -1.3575846769    4.3587954388
 C    0.0528070543   -1.8793970432    1.9099389020
 H    0.4520648986    2.0452385613    0.4163174146
 H   -0.6317121346    1.8381652208   -0.9667651397
 H   -1.2298646357    1.5538723450    0.6714165704
 H   -0.7774075835   -0.6217469153   -0.5026273362
 H    1.3456822349   -0.9932062274   -1.6812170082
 H    2.0059120899    0.5334564201   -1.0311357348
 H    1.9424749530    0.3446055869    2.6707540552
 H    0.1903550886    0.7252902361    2.7234820910
 H   -1.1041200768   -0.8482466415    4.2508956289
 H   -0.3148681128   -2.3894699493    4.6732763595
 H    0.4271541749   -0.8598130224    5.1628904151
 H   -1.0502312762   -1.8244152226    1.8942890688
 H    0.3698470170   -2.8902445017    1.6317214376