17

 O   -0.0031475158    1.4484082622   -0.1257512920
 C    0.0779291463    0.0508903440    0.0931949767
 C   -1.3023864571   -0.5558377866    0.0600422231
 C   -2.2770243766   -0.4282558294    1.2515936739
 N   -2.7697784150   -1.8183014054    0.9972674129
 C   -1.7254517299   -2.0452882541   -0.0332624006
 C   -2.2282451269   -1.6822832116   -1.4385453419
 O   -1.9435223725   -0.2736539198   -1.2131538377
 H   -0.5157560811    1.5578955901   -0.9366188545
 H    0.7115794793   -0.4412444303   -0.6624996571
 H    0.5466510892   -0.0945811827    1.0721737859
 H   -1.7570614831   -0.3015746552    2.2094607233
 H   -3.0474713738    0.3416410013    1.1539590945
 H   -2.6747565280   -2.4273946881    1.8005336478
 H   -1.0699220671   -2.9082344302    0.0946408061
 H   -1.6250141648   -2.0783425798   -2.2655053365
 H   -3.2913232629   -1.8669661744   -1.6197879938