18

 O    0.0986718099    1.4394802183    0.1366802112
 C    0.0904189547    0.0263288798    0.0179878784
 C   -1.3677964138   -0.4282978761    0.0090772935
 C   -1.5216113654   -1.9616297685   -0.1489389476
 C   -2.7009431867   -2.3711382982    0.7901470542
 C   -2.8186972014   -1.1758331474    1.7260329223
 C   -2.1040128281   -0.1405811681    1.2963534303
 C   -3.9543363229   -2.6124601806    0.0641026962
 N   -4.9418828938   -2.8004133455   -0.5070844011
 H    1.0120622260    1.7381962629    0.1675889083
 H    0.5836735543   -0.3022120865   -0.9110320004
 H    0.6167277778   -0.4515813454    0.8606515951
 H   -1.8597310178    0.1044562624   -0.8165486712
 H   -1.6860145578   -2.2734944190   -1.1813163012
 H   -0.6147088240   -2.4611475558    0.2074454054
 H   -2.4691968701   -3.2951184047    1.3329751922
 H   -3.4560084645   -1.2007779561    2.6013415814
 H   -2.0455898163    0.8276795887    1.7782261330