19

 C   -0.1340090210    1.5714383556    0.1008821828
 C    0.0059704848    0.0370729701    0.0066413898
 C    0.7172865200   -0.4328074806   -1.2862773404
 C   -0.0592184346   -0.1208140519   -2.5616620603
 O    0.6486098439   -0.7211880084   -3.6337645352
 C    0.7163855562   -0.4855296704    1.1702578863
 C    1.3135950588   -0.9214734369    2.1263521591
 C    2.0423342595   -1.4077894988    3.2682977671
 O    1.8507175599   -2.4757181064    3.8042441316
 H    0.8475120192    2.0513546384    0.0418083942
 H   -0.7566337022    1.9559599348   -0.7111275912
 H   -0.5972500998    1.8600483630    1.0477311196
 H   -1.0024966554   -0.4012292870    0.0125561218
 H    1.7107604076    0.0249799234   -1.3457447968
 H    0.8691462488   -1.5156863092   -1.2419194459
 H   -1.0825260273   -0.5250152681   -2.4801757304
 H   -0.1475475038    0.9663424910   -2.7071202029
 H    0.1997273156   -0.4993365054   -4.4547123023
 H    2.8215534897   -0.7100818232    3.6384735330