21

 C   -0.1744788803    1.5904814959    0.4627623113
 C   -0.1333438759    0.0707313813    0.3503837197
 O    0.3053454776   -0.4278518577    1.6045896584
 C   -1.5025879051   -0.5166731808   -0.0341586673
 C   -1.4256084304   -1.9997974057   -0.3660340711
 O   -0.8710116957   -2.8043681932    0.7227423706
 C   -2.1411676646   -3.4491316626    0.9643714347
 C   -2.7422207497   -2.8128616474   -0.3107629820
 O   -3.8964018571   -2.0243169352   -0.1766465248
 H    0.7964973841    1.9632854651    0.8002494239
 H   -0.4104089150    2.0512752373   -0.5014197039
 H   -0.9289637901    1.8981266856    1.1940125416
 H    0.5918075984   -0.1996248514   -0.4403155423
 H    0.1233343978   -1.3780615167    1.6099378987
 H   -2.2044349862   -0.3458962415    0.7883976826
 H   -1.9012418723    0.0036684000   -0.9136695701
 H   -0.8276759945   -2.1555637086   -1.2725550882
 H   -2.0426171317   -4.5397117003    0.9917311604
 H   -2.6211246925   -3.0936582423    1.8843687315
 H   -2.8349133957   -3.5230562795   -1.1410311040
 H   -4.6695107610   -2.5895061824   -0.2636154599