21

 C   -0.0827158703    1.3460001918   -0.5609868944
 C   -0.0173730631   -0.1386891510   -0.1845621132
 C   -1.3908308978   -0.7172253932    0.0949049288
 O   -2.2651390863   -0.7204686022   -1.0817051272
 C   -2.6694671709   -2.0853876713   -0.8246285521
 C   -1.8554558376   -3.0555818473   -1.7264459215
 O   -1.4524998515   -2.5119578932   -2.9501461812
 C   -0.7917250919   -3.1891086176   -0.5782675773
 C   -1.6231525765   -2.2288415124    0.3149261244
 H    0.9123554700    1.7399313215   -0.7864831353
 H   -0.7143228613    1.4918488912   -1.4421042673
 H   -0.5042154727    1.9438753610    0.2544749446
 H    0.4622793353   -0.7037643325   -0.9910201572
 H    0.6003250970   -0.2778382848    0.7125160446
 H   -1.8787708675   -0.1297652155    0.8869201092
 H   -3.7535252500   -2.1902781482   -0.7363688950
 H   -2.3709817110   -3.9994499629   -1.9288843231
 H   -1.4354307652   -1.5537075453   -2.8056760591
 H   -0.7293623838   -4.2011246362   -0.1705761955
 H    0.2163007337   -2.8646081753   -0.8442003064
 H   -1.8581899386   -2.5487765269    1.3286600043