17

 C    0.2940712635    1.6307360560    0.0107033787
 C    0.1095709448    0.1309868926   -0.0604822092
 C    0.5756827196   -0.7349206330   -1.2257085638
 C    1.6536487952   -0.1964316883   -2.1473798761
 C    2.8403146794    0.0696694052   -1.2326260836
 N    3.9253274225    0.6136339978   -1.5757777698
 O    2.5556645923   -0.3567959533    0.0418669899
 C    1.2330909114   -0.8535856673    0.1236478538
 H    1.2639362707    1.9545420810   -0.3732734043
 H   -0.4814542425    2.1433421710   -0.5679873827
 H    0.2216119415    1.9765664523    1.0470192318
 H   -0.8278451013   -0.2165254657    0.3686718584
 H   -0.0883900223   -1.5049042020   -1.5985438758
 H    1.9347928149   -0.9382537694   -2.9011095884
 H    1.3848783407    0.7183582242   -2.6821323972
 H    4.5583414801    0.6876673170   -0.7776900209
 H    1.1593271896   -1.7099675780    0.7825619492