23

 C   -0.1574729457    1.5127525084    0.2745043031
 C   -0.0958894099   -0.0167406133    0.0401983066
 C    0.1836665486   -0.3772058078   -1.4105963398
 C    1.2418642004   -0.1941996102   -2.2030295321
 C    2.6091002400    0.3906176841   -1.9620870924
 C    3.1733370691    0.4053297789   -0.5368451525
 C    3.1129776305   -0.9572472142    0.1893027256
 C    1.9782424939   -1.1362425017    1.1682027924
 C    0.7074483464   -0.7341123152    1.1130331969
 H    0.8043957229    1.9927999589    0.0828609696
 H   -0.8979884210    1.9688234973   -0.3904273126
 H   -0.4441334107    1.7319043684    1.3084809635
 H   -1.1230489639   -0.3628002149    0.2112070846
 H   -0.6730208498   -0.8418928621   -1.8960705960
 H    1.1086744289   -0.5235821037   -3.2336305163
 H    3.3089985101   -0.1750705891   -2.5930798696
 H    2.6333517212    1.4124418575   -2.3703928641
 H    4.2198061749    0.7224606848   -0.6118946251
 H    2.6792749259    1.1617046609    0.0783157778
 H    3.1003134130   -1.7673273872   -0.5539770284
 H    4.0432313575   -1.0978356825    0.7504690669
 H    2.2624246102   -1.6647888539    2.0771637706
 H    0.1061587175   -0.9559595334    1.9944603614