25

 C    0.0777476446    1.4910590736   -0.0148698061
 C    0.0715296166   -0.0129876692    0.2059010150
 O   -1.2237595377   -0.5013577534   -0.0855264326
 C   -1.3802156163   -1.9120784800    0.0340431072
 C   -1.5284392896   -2.3282758821    1.5039135813
 C   -2.5972990481   -2.3535821050   -0.7669557284
 C   -3.6933612700   -1.3890737700   -1.1542928536
 C   -2.8402138589   -2.0294913095   -2.2245069572
 C   -1.8836031427   -1.2179070127   -3.0714199697
 H    1.0652159180    1.9044032663    0.2120045731
 H   -0.1685196370    1.7327724834   -1.0528877877
 H   -0.6583270501    1.9760161239    0.6326610934
 H    0.8154370574   -0.5033469192   -0.4440892587
 H    0.3535296384   -0.2398786608    1.2455069185
 H   -0.4815393839   -2.4001941986   -0.3821621177
 H   -1.6132067455   -3.4164841341    1.5871943748
 H   -0.6661927248   -2.0180041186    2.1006238454
 H   -2.4281878050   -1.8762783302    1.9322737524
 H   -2.9280124704   -3.3444159898   -0.4656365719
 H   -4.7270683266   -1.6987338780   -1.0434280414
 H   -3.5063888891   -0.3429616110   -0.9413454955
 H   -3.3250130279   -2.8346937840   -2.7728968726
 H   -1.4520789873   -0.3961992475   -2.4984009422
 H   -1.0615642762   -1.8385046327   -3.4478526607
 H   -2.4006832379   -0.7963305611   -3.9409096152