19

 C    0.3074810600    1.4655816920    0.1728549730
 C    0.0283689743   -0.0036466113    0.0541658508
 C   -0.7887520298   -0.6576190504   -1.0610590089
 O   -1.3437938289   -1.6373134002   -0.1427819769
 C   -0.6803032824   -0.9967934466    0.9520266836
 C    0.8121613267   -1.0839424624    0.7955752502
 C    1.4906877154   -2.2522592438    0.1631730213
 C    2.9517883503   -2.3236561260    0.0298962675
 O    2.2766972790   -3.0683519864    1.0437709445
 H    1.0902414937    1.7813666348   -0.5273503961
 H   -0.5893909468    2.0584685017   -0.0397394022
 H    0.6473315471    1.7232835127    1.1808156675
 H   -1.5819711894   -0.0030251896   -1.4420548746
 H   -0.2575875456   -1.1183842378   -1.9019741836
 H   -1.2183859782   -0.9069963578    1.8892777644
 H    1.3578759560   -0.6773612087    1.6448056909
 H    0.8799825092   -2.8222741728   -0.5342451379
 H    3.3977135094   -2.9140122134   -0.7700479666
 H    3.5638811399   -1.4956275941    0.3872995731