21

 C   -0.5518683604    0.7225600411    0.1055807943
 O    0.1893960251   -0.4641845320   -0.0678239680
 C    0.9701608078   -0.4998473420   -1.2734993649
 C    1.7332297079   -1.8323598949   -1.2707435684
 C    0.7673976181   -2.8111842526   -1.9676300885
 O   -0.1136287284   -3.4744075400   -1.0621670211
 C   -0.0172060199   -1.8959596566   -2.9026200067
 C   -0.8590630386   -2.4571950739   -4.0006373656
 C    0.1029327412   -0.6236042774   -2.5122809676
 H    0.0981479481    1.6111265300    0.0772900032
 H   -1.3348477379    0.8432643843   -0.6568695688
 H   -1.0266319238    0.6669384555    1.0884203083
 H    1.6296243158    0.3805351895   -1.2882667716
 H    2.6505741858   -1.7276963142   -1.8578775494
 H    1.9957230673   -2.1560488195   -0.2615554565
 H    1.2887135277   -3.6147531940   -2.4977539454
 H   -0.4987254343   -2.7792847235   -0.5119173994
 H   -1.5435448987   -3.2116224813   -3.5954261558
 H   -1.4469995072   -1.6860202063   -4.5054236453
 H   -0.2416178414   -2.9658718496   -4.7518967167
 H   -0.4048752343    0.2186998174   -2.9699713461