19

 O    0.0909450712    1.4445909113    0.1162825563
 C    0.0422132246    0.0216828673    0.0370299784
 C   -1.3951288693   -0.5115704866    0.0689543017
 C   -1.4316197571   -2.0087835869   -0.2513169676
 C   -0.9035303286   -2.2766676410   -1.6809243165
 C    0.3636910848   -1.4812031629   -1.9521122723
 C    0.7822269273   -0.4821008847   -1.1779753562
 C   -0.6921174297   -3.7041036715   -1.9190426010
 C   -0.5124545732   -4.8781666055   -2.1041845567
 H   -0.2952672335    1.7902846739   -0.6964793082
 H    0.5697878455   -0.3088875136    0.9423540540
 H   -1.8442879332   -0.3064297661    1.0452670660
 H   -1.9868656539    0.0392334644   -0.6760590812
 H   -0.8045644794   -2.5580640831    0.4604816142
 H   -2.4455237773   -2.4079849165   -0.1541775714
 H   -1.6705840584   -1.9369128568   -2.3960534905
 H    0.9358555500   -1.7789308151   -2.8263636838
 H    1.7047304809    0.0444351258   -1.4118377850
 H   -0.3567671209   -5.9149944524   -2.2717627402