15

 O   -0.0511819496   -0.0128903621   -0.4038640134
 C   -0.0686807677    1.1448387385   -0.1280984302
 C   -1.1932282817    2.1490029055    0.3139453003
 C   -0.0659101470    3.1737765514    0.5856182398
 C    0.7507250284    3.2030534832    1.8972343147
 O    1.7450793463    2.2791686514    1.3217046674
 C    1.0080456012    2.2577800265    0.0850313900
 C    1.2920999392    3.3608107117   -0.9628202652
 O    0.2117670798    4.1840285292   -0.4039230843
 H   -1.8589217719    2.4424208353   -0.5020751371
 H   -1.7953920969    1.8133975619    1.1628412076
 H    1.1919099214    4.1747114703    2.1357550443
 H    0.2744453862    2.7725610476    2.7842782756
 H    2.2722237647    3.8337516987   -0.8485876496
 H    1.1115682476    3.1105884007   -2.0129364799