23

 C   -0.0494023310    1.4897628378    0.2348717664
 C    0.0485774004   -0.0322672584    0.0317931620
 C    0.8699338358   -0.6639203055    1.1587872727
 O   -1.2466110724   -0.6202339087    0.1275455930
 C    0.6861439657   -0.4044996157   -1.3342148108
 C   -0.0021589005    0.1846621992   -2.5685183735
 C    0.6766128604    1.3637219627   -3.2303989014
 C   -0.8994140655   -0.6583598246   -3.3758496055
 O   -1.4478966569    0.3164692131   -2.4799515089
 H    0.9350118542    1.9691619691    0.1900468308
 H   -0.6913346170    1.9484869663   -0.5225681873
 H   -0.4875500120    1.6975871704    1.2150998252
 H    0.3829229186   -0.4734145163    2.1193381787
 H    0.9366102567   -1.7473520657    1.0233409974
 H    1.8826170550   -0.2506854296    1.1932028885
 H   -1.7382259945   -0.3122026210   -0.6471848816
 H    1.7350773094   -0.0879608418   -1.3429369026
 H    0.6825420388   -1.4971845208   -1.3948583976
 H    1.6525354583    1.0648567651   -3.6282080761
 H    0.0673238944    1.7494656695   -4.0515386924
 H    0.8422686326    2.1740018583   -2.5139636665
 H   -1.0490227542   -0.4409124174   -4.4324502161
 H   -1.0642612362   -1.6949325460   -3.0864924744