18

 O    0.0823460013    1.0178456051   -0.8894691980
 C    0.0592709485   -0.2754850402   -0.3207370609
 C   -1.3372460105   -0.5802420605    0.2180080162
 N   -2.3464522676   -0.4180380105   -0.8781234432
 C   -2.6631030540   -1.8827538492   -0.8697765810
 C   -2.2083634894   -2.5894791908   -2.0569687296
 C   -1.7625647620   -3.2140805113   -2.9843598203
 C   -1.7287460499   -2.0787128580    0.3850011107
 O   -0.7498502396   -3.0709867001    0.3535008090
 H   -0.6624463655    1.0257691196   -1.5070287664
 H    0.3525493735   -1.0389991497   -1.0578968316
 H    0.7965188691   -0.2963958524    0.4874961638
 H   -1.5363762808    0.0489063181    1.0915745474
 H   -3.1495475156    0.1304243139   -0.5932319208
 H   -3.7170147904   -2.1129493929   -0.6823570717
 H   -1.4048528509   -3.7482060716   -3.8303796954
 H   -2.3194229444   -2.2450283528    1.2895357286
 H   -0.4970180119   -3.2162102867   -0.5678923566