17

 O    0.0349643542    1.3745989250    0.0136546893
 C    0.0167769493   -0.0325236287   -0.0309084936
 C    0.5380061669   -0.7148413837    1.2789304144
 C   -0.8034431196   -1.3487071197    1.7239125435
 C   -1.2847497509   -2.0582866488    0.4264073427
 C   -1.4243959506   -0.5828902153    0.0230346752
 O   -1.7637730892   -0.2621172207    1.4154849418
 C   -0.9117149370   -1.9269093207    3.0358960694
 C   -0.9778215643   -2.4290479491    4.1257653381
 H   -0.5506427340    1.6179485162    0.7434904575
 H    0.5679675578   -0.3278074039   -0.9267522852
 H    1.3175752241   -1.4624530756    1.1161658241
 H    0.8987421093    0.0282194371    1.9920113839
 H   -0.5774231208   -2.6987490281   -0.1055436118
 H   -2.2499129027   -2.5446790261    0.5643279160
 H   -2.1442002817   -0.2116124747   -0.7046781989
 H   -1.0407878009   -2.8690862932    5.0904700435