16

 C    0.1451003055    1.5077059076    0.0070249657
 C   -0.0664845781   -0.0045072640    0.0037088859
 C   -1.5066516586   -0.4271093243    0.0140445683
 N   -2.4844304852    0.4115129619    0.0239132454
 C   -3.7509736586   -0.1297303491    0.0324786456
 C   -4.0064950241   -1.4582156221    0.0310429249
 C   -2.9115622910   -2.3990106765    0.0200728875
 O   -2.9329185233   -3.5953917820    0.0170063089
 O   -1.6385677253   -1.7656649972    0.0116871770
 H    1.2146236340    1.7344183762   -0.0010653651
 H   -0.3154708363    1.9713454800   -0.8683265777
 H   -0.3008688237    1.9654566011    0.8929813609
 H    0.4036340103   -0.4696370059   -0.8723362859
 H    0.4179315793   -0.4755416300    0.8687212021
 H   -4.5613583857    0.5937503980    0.0407010329
 H   -5.0096168892   -1.8630963838    0.0378362034