21

 O   -0.2513136589    1.4458109726   -0.0716735549
 C    0.0447817808    0.0679710899    0.0596936764
 C    0.0869289448   -0.5130194728    1.5042893143
 C   -0.7958058118   -1.6918933579    1.0010974267
 C   -1.1901074078   -0.8166297689   -0.2236712968
 C   -0.0186865172   -2.9578331373    0.6508940974
 C    1.1806813581   -2.8163152396   -0.2489062329
 C    1.7034190480   -1.7339780592   -0.8283248951
 C    1.2685112736   -0.2943847091   -0.7812492065
 H    0.5469266610    1.9461980709    0.1313385615
 H    1.0641288404   -0.7541891292    1.9330220850
 H   -0.4607900730    0.1428916359    2.1851899591
 H   -1.6247693253   -1.9606756987    1.6604673616
 H   -2.1028084069   -0.2455080993   -0.0400077264
 H   -1.2536446330   -1.2997163787   -1.2023771424
 H    0.3117102483   -3.4422352032    1.5826315013
 H   -0.7070440029   -3.6813321964    0.1874863624
 H    1.6852799749   -3.7620018231   -0.4439298500
 H    2.5879775920   -1.8898229338   -1.4444768285
 H    1.0814170643    0.0542624400   -1.8073480336
 H    2.1218689806    0.3063926980   -0.4229079387