17

 O    0.1353702540    0.9390879502    0.5505975055
 C   -0.2244100009   -0.3613552525    0.1336322829
 C   -1.7296149783   -0.4268626334   -0.2358612131
 N   -2.6231413800    0.0065048729    0.8333648733
 C   -2.8282206246   -0.9596669067    1.9031946478
 C   -4.0305900825   -0.5610909677    2.7501838600
 O   -4.1498695368   -0.8301014620    3.9151092118
 C   -1.9460126446    0.4222104962   -1.4230109095
 N   -2.0434722589    1.1150772032   -2.3426227654
 H    0.1578809951    1.5094592183   -0.2269475020
 H    0.3856825391   -0.7156642273   -0.7086149112
 H   -0.0441122633   -1.0226414069    0.9863114635
 H   -1.9861341478   -1.4580720928   -0.5090119087
 H   -2.2573869440    0.8786467890    1.2060210271
 H   -3.0840618391   -1.9285087004    1.4485385245
 H   -1.9729555586   -1.1330913694    2.5732124348
 H   -4.8071843589   -0.0032188007    2.1816105487