18

 C    0.1205095861    1.5271187072   -0.0773952209
 C    0.0345017797    0.0120239511    0.0354178349
 O    0.5458396430   -0.5261015030   -1.2188316495
 C    0.8547347478   -1.8596900156   -1.2298634544
 N    1.2122523572   -2.5746591530   -0.2517229433
 C    1.3525264750   -1.9545516758    1.0230142631
 C    2.2710729459   -0.7343456839    1.1689203590
 O    3.0693656669   -0.2536853146    0.1389824996
 C    0.7806131511   -0.5551619923    1.2253876055
 H    1.1640747632    1.8482350318   -0.1316982465
 H   -0.4072492881    1.8763864154   -0.9688792262
 H   -0.3363172623    1.9903556214    0.8021390535
 H   -1.0171771694   -0.2993415502    0.0997602525
 H    0.7844744527   -2.2653121763   -2.2362323362
 H    1.3353016449   -2.6575501794    1.8487583037
 H    2.8105300643   -0.6677997338    2.1084645716
 H    2.5381338146   -0.1713721161   -0.6612671427
 H    0.3271441073   -0.3105697428    2.1824945064