21

 C    0.0725276102    1.5545984498   -0.0327144579
 C    0.0964738530    0.0351668151    0.1375673501
 O    0.6414626515   -0.3337059721    1.4060604889
 C   -1.2888828935   -0.5862017273   -0.0407324115
 C   -2.0095038787   -0.5720807834   -1.4302589653
 C   -2.2434888139   -2.0850100503   -1.3114299340
 C   -0.9327362106   -2.8013986305   -1.2077417504
 O    0.2313125379   -2.3672138357   -1.8580432085
 C   -1.4354093639   -2.1134651131    0.0160907029
 H    1.0712578742    1.9694598420    0.1287413968
 H   -0.2634232566    1.8400098823   -1.0350945166
 H   -0.6109078645    2.0181268482    0.6913170903
 H    0.7773478620   -0.4068754734   -0.5933910906
 H    0.0907563798    0.0699663665    2.0866472586
 H   -1.9617827987   -0.1399251978    0.7042281432
 H   -2.9277499393    0.0173576355   -1.4299163888
 H   -1.3950433440   -0.2674799592   -2.2831600915
 H   -3.1631580636   -2.5969603740   -1.5707822595
 H   -1.0269499354   -3.8870028049   -1.1520111325
 H    0.1236718132   -2.5360555238   -2.8003400985
 H   -1.6250412790   -2.6739718637    0.9238678849