15

 C   -0.0447328752    1.5126515561    0.1580381210
 C    0.0162051338    0.0273598453   -0.1054817184
 C    0.6635051974   -0.6594908035   -1.2343966076
 C    1.9458259399    0.0111916275   -1.7377923925
 C    1.8939080733    1.2605764318   -2.4719198639
 N    1.8446794942    2.2665911136   -3.0394849330
 C    2.3755894019   -0.0268907780   -0.2307094506
 O    3.3295791327    0.3326155981    0.3736182351
 N    1.2382293235   -0.8073967167    0.1874951878
 H    0.8073544153    2.0652726670   -0.2411624576
 H   -0.9516043264    1.9241944987   -0.2955250140
 H   -0.0926365572    1.6929129269    1.2361318668
 H   -0.8524489057   -0.5092825407    0.2696975601
 H    0.2245375607   -1.5196854947   -1.7248642812
 H    2.5726111919   -0.7077739815   -2.2756164817