14

 C   -0.0487653186    1.3919727214    0.0864439689
 N    0.0677454346   -0.0588845272    0.0605331532
 C    0.5813642927   -0.6022080469   -0.9483239381
 N    0.7748830794   -1.9592490466   -1.1625888666
 C    1.3400134866   -2.1175580730   -2.4008393826
 N    1.5433979853   -0.9827648039   -3.0010178284
 O    1.0767831438   -0.0033327864   -2.0922161080
 C    1.6645373340   -3.3764881795   -2.9567745052
 C    1.9265847069   -4.4627417399   -3.3984261349
 H    0.8994585271    1.8605426571    0.3816456157
 H   -0.3411113000    1.8189326765   -0.8815916498
 H   -0.7998731296    1.6716869243    0.8294705483
 H    0.4996533544   -2.6796533512   -0.5191569242
 H    2.1643775235   -5.4165563549   -3.8027519383