20

 O    0.6588695459   -0.9862908754   -1.1610845374
 C    0.2084156036   -0.3225729884   -0.0036383007
 C   -1.3211065517   -0.3272798244    0.0602909192
 C   -1.8728029073    0.4138400516    1.3034172480
 O   -3.1564285932    1.0053456432    1.0793850577
 C   -3.3801760468    1.3768147995   -0.2718319261
 C   -3.3436305053    0.1224624161   -1.1698379458
 N   -1.8390460896    0.2589905785   -1.2045225208
 C   -2.0591623848    1.7413038743   -0.9852980265
 H    0.0441636428   -0.7016616048   -1.8541458107
 H    0.6265593789   -0.8406693684    0.8673149407
 H    0.5720484774    0.7204551503    0.0338659778
 H   -1.6491158493   -1.3728374492    0.0617104818
 H   -1.9869025762   -0.2686349646    2.1501717724
 H   -1.1640193217    1.1969926488    1.6110691190
 H   -4.2378387157    2.0535209686   -0.2796726426
 H   -3.7171310765   -0.8112802436   -0.7423696327
 H   -3.7584514740    0.2767284896   -2.1704544477
 H   -2.2181095240    2.2345642720   -1.9473249201
 H   -1.2803359425    2.2695468666   -0.4315938556