23

 C   -0.0039759619    1.5999378446    0.0516973595
 C    0.0113637393    0.0698014363    0.0128259929
 C   -1.3934551680   -0.5418778372   -0.0013103137
 C   -1.3913382090   -2.0708787729    0.0260384535
 O   -0.7641406508   -2.5905725387    1.1997872263
 C   -2.7998929076   -2.6623731269   -0.1176799267
 O   -3.3769984701   -2.1767862304   -1.3145685459
 C   -2.7880370829   -4.1934346054   -0.1435914331
 O   -4.0811910621   -4.6898973627   -0.4946278624
 H    1.0112206695    2.0090484651    0.0527059571
 H   -0.5296797615    2.0141857605   -0.8158974186
 H   -0.5117031082    1.9695708628    0.9499871581
 H    0.5567911271   -0.2692276004   -0.8776959961
 H    0.5653283881   -0.3220701847    0.8733071288
 H   -1.9671334699   -0.1777919187    0.8666934085
 H   -1.9454123685   -0.2147324289   -0.8886585336
 H   -0.7844203889   -2.4453089230   -0.8083208673
 H   -1.1691899197   -2.1578216958    1.9601116161
 H   -3.3995729633   -2.3344485387    0.7573256598
 H   -4.0608397977   -2.8200072999   -1.5473789465
 H   -2.1164405607   -4.5391103647   -0.9364370352
 H   -2.4338887012   -4.5994445875    0.8096402952
 H   -4.6587382120   -4.5779759229    0.2680600135