14

 O    0.0004337534    0.0915857174    0.0044285688
 C   -0.0153448936    1.2757727080    0.0108169944
 C   -1.1851688197    2.3442686202    0.0327753178
 C   -0.6923203001    3.0671436009    1.2763769961
 C    0.6484280269    3.0850226218    1.2577340615
 C    1.1255920190    2.3752322480    0.0005619557
 C    0.6134802117    3.0980971194   -1.2352379846
 C   -0.7272664262    3.0800457857   -1.2165960496
 H   -2.2074072166    1.9730764034    0.0451767668
 H   -1.3483999264    3.4576992038    2.0418786349
 H    1.3148977987    3.4932341501    2.0048275034
 H    2.1573554952    2.0315629250   -0.0156995477
 H    1.2588124051    3.5142279996   -1.9963874302
 H   -1.4044847036    3.4783892667   -1.9593376572