14

 O   -0.0081319321    0.0208504594    0.4085801492
 C   -0.0451772068    1.1936935933    0.1429139076
 C   -1.3256798955    1.9966403308   -0.0005526531
 C   -1.1626105772    3.1567788648   -0.9901478427
 O   -0.0642503908    3.9689859595   -0.6150998925
 C    1.1747514442    3.3212336342   -0.8091027125
 C    1.2876304190    1.9753686915   -0.0923632181
 O    2.3439296006    1.5027509005    0.2345167012
 H   -2.1468735223    1.3239866381   -0.2656009949
 H   -1.5485278266    2.4215012219    0.9879244150
 H   -1.0298675115    2.7787817419   -2.0173063563
 H   -2.0458397397    3.7999442348   -0.9815830086
 H    1.3603116240    3.1318114689   -1.8828475062
 H    1.9626959347    3.9863264104   -0.4477542380