19

 C    0.1026091757    1.5298563585    0.0499336951
 C    0.0526198639    0.0750717480    0.0317671728
 C    0.0112885908   -1.1276380015    0.0069999094
 C   -0.0156116150   -2.5833527114   -0.0102861947
 C   -1.4538344773   -3.1862766376   -0.0180627246
 C   -2.2598282094   -2.7272951315    1.2068463421
 N   -2.1478055108   -2.7511394394   -1.2321049836
 C   -1.3081079290   -4.6651291464    0.0243638150
 N   -1.2115034483   -5.8177588531    0.0138011837
 H    0.9951307653    1.9013417578   -0.4655036339
 H   -0.7715009102    1.9617806966   -0.4495368991
 H    0.1262550054    1.9175558289    1.0742794050
 H    0.5182890126   -2.9615601630   -0.8916203811
 H    0.5166651260   -2.9849625417    0.8601930417
 H   -2.3426832090   -1.6393604142    1.1836561279
 H   -3.2626090523   -3.1638434818    1.1916072696
 H   -1.7691952426   -3.0349920261    2.1336634506
 H   -1.6565281000   -3.0795529486   -2.0587889709
 H   -3.0787031657   -3.1566664333   -1.2643905149