19

 C    0.0645055554    1.4843171326    0.3723315122
 C   -0.0019154670    0.0516984051   -0.1729357038
 C   -1.4001624807   -0.5304376801   -0.1487075838
 C   -1.9909553844   -1.0379429662    1.1601625215
 C   -1.7182271444   -1.9962888369    0.0152208454
 C   -2.9054165750   -2.2627721735   -0.8489696604
 C   -3.3347497536   -1.1525477782   -1.4661914556
 C   -2.4353480328   -0.0114763902   -1.1388331005
 O   -2.4853518918    1.1093228549   -1.5957945860
 H    1.0876615149    1.8699729825    0.3263064541
 H   -0.5836533924    2.1420534470   -0.2101812431
 H   -0.2626541721    1.5210712578    1.4170099662
 H    0.3710335675    0.0343653078   -1.2041622283
 H    0.6627911970   -0.6008609283    0.4071642198
 H   -1.3142481944   -1.0584396879    2.0096409673
 H   -3.0252533013   -0.8199288984    1.4038330438
 H   -0.9412329872   -2.7436632889    0.1278385726
 H   -3.3732973600   -3.2394582332   -0.9072563749
 H   -4.2004762777   -1.0463782959   -2.1061677066