15

 O    0.1819544909    1.2400242384    0.4141546432
 C    0.0896237023   -0.0984550450    0.0160482621
 C   -1.3636401286   -0.6421498833   -0.0522282300
 C   -1.3334220391   -1.5039583707   -1.3089466690
 C   -0.2358526038   -1.3203130474   -2.0535559281
 C    0.6210165786   -0.3074611682   -1.4106129227
 O    1.5396429592    0.3335028129   -1.8704949679
 C   -1.8207375661   -1.3635208313    1.1280351768
 C   -2.1923377494   -1.9756774850    2.0928055119
 H    0.9092700432    1.6150806254   -0.1047922580
 H    0.6675521260   -0.7599360749    0.6827740463
 H   -2.0220945353    0.2206316051   -0.2248777373
 H   -2.1535377738   -2.1738945544   -1.5406180296
 H   -0.0145870061   -1.7746200564   -3.0104819746
 H   -2.5217518778   -2.5059969951    2.9520096270