19

 C   -0.0116323172   -1.1830410555    0.0381446054
 C    0.0022576378    0.0203180145    0.0269748585
 C   -0.0042827126    1.4623210690    0.0394645078
 C   -0.9140471182    2.1592517886    1.0663171001
 C   -0.6158894309    3.6455371160    0.7359043743
 C    0.3901349641    3.4629838272   -0.3975162624
 C    1.3462616260    2.2735383650   -0.0633675120
 C    1.4264664729    1.9352140612   -1.5698473159
 C   -0.0587938911    2.2779805031   -1.3112165176
 H   -0.0206707810   -2.2447079172    0.0442578256
 H   -1.9632827940    1.8878284031    0.9184413940
 H   -0.6442815176    1.8836465516    2.0898895311
 H   -1.5072424475    4.1921655641    0.4124099755
 H   -0.1874453387    4.1879729841    1.5845277011
 H    0.8156432573    4.3480222309   -0.8734804301
 H    2.1488704248    2.2602808159    0.6768690446
 H    1.9842621003    2.6370964877   -2.1954164219
 H    1.6548377001    0.8998111254   -1.8306744999
 H   -0.8886767746    2.2698872654   -2.0208191382