20

 C    0.0979633750    1.5867182705   -0.0556061452
 C    0.0826242675    0.0750611272    0.0043631710
 C    1.3836764437   -0.7087250303    0.0274397282
 C    0.4994647050   -0.6619577748    1.2401325226
 O    0.9208273955    0.1393956772    2.3319389413
 C    1.3367419144   -0.5135407796    3.4391029126
 O    1.3520332162   -1.7117129869    3.5602894208
 C    1.7723917203    0.4790362316    4.5143674042
 N    2.2118637496   -0.1171324802    5.7627875665
 H    0.9155308432    1.9983121889    0.5409998219
 H    0.2207341521    1.9318618660   -1.0873755082
 H   -0.8372491567    2.0062591301    0.3303172008
 H   -0.7364392418   -0.3887652693   -0.5393220826
 H    1.4636044738   -1.6411379150   -0.5201434821
 H    2.2993624580   -0.1284360079    0.0750031968
 H   -0.0246933857   -1.5555117641    1.5546553990
 H    2.5738819527    1.0979446385    4.0933435566
 H    0.9380991196    1.1653763202    4.6998575150
 H    1.4603143539   -0.6896976150    6.1376941088
 H    2.9616513939   -0.7751769872    5.5674730622