20

 C    0.0580964738    1.5024627899    0.2302586726
 C    0.1394296630    0.0067089250    0.0420794342
 C   -0.9139966864   -0.8909547852    0.6493723894
 C    0.5041274610   -0.9394355345    1.1684358563
 C    1.4042032580   -2.0463480110    0.6131138272
 C    1.1699654614   -1.9907541621   -0.9284146206
 C    0.8079254216   -0.5210508283   -1.2251903164
 C    2.8051892245   -1.7835847756    0.9559480791
 N    3.9095112542   -1.5702387436    1.2236569386
 H    1.0509237101    1.9622109681    0.1669394593
 H   -0.5721767170    1.9639987007   -0.5388264039
 H   -0.3691816439    1.7598262347    1.2044766281
 H   -1.6456450516   -0.4204994071    1.2976728952
 H   -1.3086732899   -1.7293530376    0.0842929948
 H    0.7075548564   -0.5761368098    2.1691955837
 H    1.1487408177   -3.0343333717    1.0129837303
 H    2.0396090491   -2.3384100225   -1.4885256098
 H    0.3390929739   -2.6553389817   -1.1781046107
 H    0.1749850950   -0.4290286341   -2.1145267647
 H    1.7167518289    0.0633313664   -1.4132601128