18

 N    0.0426813417    1.1906610823   -0.1722978366
 C    0.0048237132   -0.1355757597    0.0566201508
 O    0.9675062630   -0.8430133326    0.3078284390
 C   -1.4085448345   -0.7176106955   -0.0229684150
 N   -2.3885244704    0.0864539212   -0.2300783577
 N   -1.3911984534   -2.0613873520    0.1374260539
 C   -2.5626531389   -2.8959552205    0.2367781859
 C   -2.1867710617   -4.3491082596   -0.0136738308
 O   -1.2116499551   -4.7039678839    0.9553174904
 H    0.9155366918    1.6847672344   -0.1109688972
 H   -0.8329337544    1.6647885976   -0.3348053142
 H   -3.2906975115   -0.3880061568   -0.2441153516
 H   -0.5006177669   -2.4493748726    0.4228904321
 H   -3.0396283490   -2.8094106265    1.2252066519
 H   -3.3016889451   -2.5887324277   -0.5135278078
 H   -3.0878842637   -4.9751841934    0.0692650572
 H   -1.7901436290   -4.4506716685   -1.0343937513
 H   -0.8250662459   -5.5488972261    0.7091294010