20

 O   -0.1238622257    1.4233346733    0.3795471603
 C   -0.0718045126    0.0051330505    0.4657840295
 C   -1.4012438831   -0.5628065546   -0.0044315752
 C   -2.6455073520    0.2061830464    0.2629125369
 N   -2.0919632414    0.1148723314   -1.1054754482
 C   -1.4295314214   -2.0687441649   -0.0260089817
 O   -1.1391474080   -2.6461327429    1.2265717228
 C   -2.3651430882   -2.8062391814   -0.9431760010
 C   -0.8692180914   -2.8174686219   -1.1965463368
 H    0.7346760222    1.7735716796    0.6308029937
 H    0.7288415561   -0.3996476149   -0.1729980244
 H    0.1217819945   -0.3331334085    1.4923096500
 H   -3.5846049938   -0.3218335688    0.4069294249
 H   -2.5533567230    1.1539565737    0.7825367930
 H   -1.5920314216    0.9801503924   -1.3013041748
 H   -1.8822179061   -2.4542206946    1.8104432922
 H   -2.8058616858   -3.7157220100   -0.5503423447
 H   -2.9841753642   -2.2209563001   -1.6122675192
 H   -0.4983012005   -2.2408041554   -2.0364917321
 H   -0.3256011840   -3.7290114292   -0.9771891952