17

 O    0.0251690273    1.3729523792   -0.2126946724
 C    0.0570540479   -0.0178845729    0.0777505325
 C   -1.3705177225   -0.5249034348    0.0205642415
 C   -2.0934288588   -0.5335469612   -1.3732607046
 C   -2.2794486056   -2.0557121843   -1.2211433747
 O   -0.9568374282   -2.6165245123   -1.0743038397
 C   -1.5691996337   -2.0481476991    0.0824918628
 C   -3.3271991440   -2.8754745384   -1.7233304508
 C   -4.2357934575   -3.5256433724   -2.1683732532
 H    0.9314730841    1.6870831716   -0.2801775548
 H    0.6636045110   -0.5708889933   -0.6530278201
 H    0.4796056898   -0.2082844086    1.0783740371
 H   -1.9812183467   -0.0114787273    0.7686282152
 H   -3.0341323209    0.0186141794   -1.3664166388
 H   -1.4943723210   -0.2344300213   -2.2352809305
 H   -1.6912210447   -2.6929214370    0.9459058310
 H   -5.0322695964   -4.1104924275   -2.5574085404