21

 C   -0.2957713935    1.4849875310   -0.1378571605
 C   -0.0570637024    0.0089025516   -0.1073013447
 C    0.1006906867   -0.8220141271   -1.1400535476
 C    0.3100632900   -2.2551914917   -0.7179996834
 C   -0.0460439504   -2.2193874042    0.7865810414
 C    0.0447078617   -0.7390893985    1.2040432182
 C    1.1689799463   -0.3053742411    2.1932061379
 C    0.0181523652    0.0231169101    3.1573516137
 O   -0.9707758610   -0.3600426833    2.1816052635
 H    0.5173553639    2.0376022876    0.3506591732
 H   -0.3851486021    1.8569978249   -1.1617235373
 H   -1.2134939377    1.7313864027    0.4071853364
 H    0.1037197785   -0.5147956797   -2.1814294497
 H   -0.3114077222   -2.9587653147   -1.2838694363
 H    1.3505381046   -2.5675811855   -0.8828490109
 H   -1.0867776386   -2.5240984758    0.9349850928
 H    0.5789025022   -2.8740773976    1.3999755439
 H    1.8391076543   -1.1088639727    2.5037129941
 H    1.7648514933    0.5497000391    1.8689948063
 H   -0.0388260705   -0.5960966789    4.0613650507
 H   -0.0778677081    1.0766564637    3.4468207382