15

 O    0.0580403483    1.3744517209   -0.1645972772
 C    0.1266135250   -0.0289458624   -0.0027077043
 C    0.4908964711   -0.3946759413    1.4358134480
 O    0.5871511294   -1.8132952288    1.6271807843
 C   -0.3357373499   -2.6496571978    1.0955329433
 O   -0.3212356677   -3.8151988854    1.3582217071
 C   -1.3727575146   -2.0577571028    0.0865897055
 O   -2.2218808756   -2.7885268644   -0.3451836865
 C   -1.2526580909   -0.5977456548   -0.3078972501
 H    0.9523377680    1.7311192578   -0.1620771324
 H    0.8726394444   -0.4751128449   -0.6787222832
 H    1.4730125284   -0.0018758372    1.7113714865
 H   -0.2519975369    0.0285909624    2.1235343905
 H   -1.9894677390   -0.0336440052    0.2817450676
 H   -1.5333694000   -0.4856730862   -1.3580641491