17

 O    0.0662578511    1.2847799652   -0.2492143212
 C    0.0393900360   -0.1197046625   -0.0994163201
 C    0.2424009487   -0.5206346686    1.3910691788
 O    0.8990950834    0.4395483532    2.1880499459
 C   -1.3089820370   -0.5746789353    1.5893864783
 C   -1.8944870683    0.5950182835    2.2064520458
 C   -2.4029486836    1.5672907820    2.6984125007
 C   -1.4350035492   -0.6092315670    0.0016347965
 O   -2.3863348832    0.1794917826   -0.6228985007
 H    0.3505766125    1.6447884387    0.6050251355
 H    0.6807030369   -0.5853176746   -0.8558391237
 H    0.6874201221   -1.5152411032    1.5022088874
 H    1.8496326990    0.3062067418    2.1056552788
 H   -1.6619025125   -1.4799024604    2.0911956093
 H   -2.8505609719    2.4208246911    3.1438637964
 H   -1.5627760193   -1.6396742029   -0.3409884759
 H   -2.0473442148    1.0853581865   -0.5663126819