19

 C   -0.0634809930    1.6215706458    0.2467299971
 C   -0.0127383578    0.0889569047    0.0543656809
 C    0.7920474611   -0.5468924367    1.0973745116
 C    1.4452489569   -1.0619850632    1.9654573779
 C   -1.4071410897   -0.5007326472   -0.0155415967
 C   -2.2577295436   -0.8843662118    1.1812365582
 C   -1.9458963989   -1.9037373708    0.1282026444
 O   -2.8314301422   -1.7682763343   -0.9879473766
 C   -2.3148066686   -0.4362607173   -1.2452550099
 H    0.9435826909    2.0461226464    0.2513759390
 H   -0.6314779471    2.0861801681   -0.5653348828
 H   -0.5486486824    1.8707719768    1.1941778664
 H    0.4779492005   -0.1120415386   -0.9095378838
 H    2.0335024448   -1.5183292614    2.7227830608
 H   -1.6987911791   -0.9914733246    2.1054375445
 H   -3.2753832769   -0.5168578919    1.2839710978
 H   -1.4695120777   -2.8630042408    0.2930059378
 H   -3.1054971629    0.3233925783   -1.2637105798
 H   -1.7600913743   -0.4159322616   -2.1919661167