17

 O    0.1195672913    1.3324359530   -0.0568705958
 C   -0.0214490646   -0.0600983851    0.2095499967
 C   -1.3983424564   -0.5421736794   -0.2639433638
 O   -1.6087373867   -0.1484163691   -1.6079299440
 C   -1.4891606311   -2.0476955606   -0.2219408150
 O   -1.6617290317   -2.6491654196    1.0495331458
 C   -2.7345810241   -2.7865911906    0.1223214586
 C   -4.0149965034   -2.0685247359    0.4126922133
 O   -4.1413522186   -1.1815919173    1.2181157644
 H   -0.4272471401    1.8127606438    0.5747601330
 H    0.7653787037   -0.5524615748   -0.3717965571
 H    0.1271702417   -0.2965546188    1.2706385278
 H   -2.1652268854   -0.1209865424    0.4025091840
 H   -1.1896737747    0.7197099872   -1.6865421792
 H   -0.7955488780   -2.5618192849   -0.8902703611
 H   -2.8566507303   -3.7836905474   -0.3027393087
 H   -4.8694927715   -2.4230869381   -0.2051370190