21

 C   -0.0715678413    1.6558831485    0.0399886496
 C   -0.1963930420    0.1847762949   -0.3467870370
 C   -1.3398190165   -0.5278244899    0.3565594674
 O   -2.0940824504    0.0624101605    1.1037253182
 C   -1.5318349006   -2.0020011873    0.0852881614
 C   -0.4811299245   -2.7662522670   -0.6936906352
 O    0.7762473707   -2.8250552317   -0.0315150282
 C   -2.2818468938   -2.7641797743    1.1743265713
 C   -2.9889480422   -2.4208510758   -0.0914980875
 H    0.7580361676    2.1247330672   -0.4966334707
 H   -0.9890875134    2.2027828160   -0.1909113561
 H    0.1065078733    1.7634297438    1.1131899401
 H   -0.3539109481    0.0770355807   -1.4300166307
 H    0.7223018836   -0.3762812365   -0.1386989110
 H   -0.8612868059   -3.7777232275   -0.9050417080
 H   -0.2787120295   -2.2934049154   -1.6598158520
 H    0.6198181581   -3.1752650643    0.8523267310
 H   -1.9950418222   -3.7976286596    1.3418577831
 H   -2.5364736992   -2.1932036664    2.0587642659
 H   -3.7186288481   -1.6208168312   -0.0546622814
 H   -3.1928863752   -3.2078348245   -0.8096386903