23

 C   -0.1906214250    1.5782792823    0.1048197572
 C    0.0238680959    0.0613921999   -0.0141183995
 C   -1.3130722425   -0.6865323520    0.0721773077
 C    0.7809248300   -0.3414843910   -1.2998273387
 O    0.0598136240    0.0061373590   -2.4830646137
 C    2.2231006683    0.1874243877   -1.3656469427
 C    2.9929213373   -0.4238724997   -2.5110410419
 C    4.4377829701   -0.6675585826   -2.4428181056
 O    3.5088678386   -1.7420693898   -2.2887452728
 H    0.7506979967    2.1363878837    0.0996329716
 H   -0.8179317263    1.9579117814   -0.7110329523
 H   -0.7087017017    1.8185326852    1.0381136480
 H    0.6532481101   -0.2578737564    0.8282531781
 H   -1.9410358242   -0.4474109522   -0.7912723985
 H   -1.1599438172   -1.7707078625    0.0812451044
 H   -1.8595344902   -0.4158391464    0.9812755760
 H    0.8292141754   -1.4366651511   -1.3277767419
 H    0.0147682312    0.9674143433   -2.5285582147
 H    2.2132975462    1.2804598347   -1.4809773119
 H    2.7441306576   -0.0346293793   -0.4271935150
 H    2.5387890212   -0.2915427916   -3.4927539032
 H    5.0312990556   -0.6874499603   -3.3560570559
 H    4.9862657487   -0.3916825524   -1.5423233146