21

 C   -0.4270817791    1.6779422689    0.0689395397
 C   -0.0884771304    0.1906016580    0.0481260239
 C   -1.3316335275   -0.6413313981   -0.2583143836
 O   -1.7855565261   -0.3107503026   -1.5621147650
 C    1.1213867278   -0.2380713848   -0.8574820336
 C    1.8236496015   -0.8430656171    0.3739389931
 O    2.7135888579    0.0912775512    1.0252465052
 C    1.6972350708    0.4583615444    1.9870857818
 C    0.6439831625   -0.4175751179    1.2931235630
 H    0.4673842853    2.2948117837    0.1916149817
 H   -0.9058919629    1.9617068367   -0.8721611754
 H   -1.1198298296    1.9166998162    0.8852249022
 H   -1.0844123746   -1.7134041937   -0.1881395403
 H   -2.1049788574   -0.4323904834    0.5001857410
 H   -2.5559419905   -0.8500605019   -1.7614615055
 H    0.8464896432   -0.9516308941   -1.6381692034
 H    1.6866802805    0.5803768222   -1.3085760930
 H    2.2526445224   -1.8466980212    0.3083633955
 H    1.9629720902    0.1131058583    2.9950400952
 H    1.5210593650    1.5395446584    2.0202070777
 H    0.0652524909   -1.0959720031    1.9219836398