21

 C   -0.0188472757    1.2903814480   -0.2413321648
 O   -0.0920854482    0.0029220745    0.3290169042
 C   -1.3514388939   -0.6076440233    0.1774653724
 C   -1.6033257329   -1.2749310687   -1.2077645426
 C   -0.8094005565   -2.5028015571   -0.6732356112
 C   -1.3135759637   -2.0488568261    0.7285728945
 C   -2.7565720269   -2.5369812815    0.9129429236
 O   -3.4362438650   -2.6391736485   -0.3324913560
 C   -3.0913132647   -1.6459933275   -1.2890164148
 H    0.9798639978    1.6808080541   -0.0316805501
 H   -0.1692505650    1.2749824550   -1.3308678582
 H   -0.7657855794    1.9698981374    0.1984496322
 H   -2.1452738640    0.0595200078    0.5540956444
 H   -1.2699173325   -0.7570165817   -2.1104782619
 H   -1.1061284614   -3.4927233109   -1.0254054860
 H    0.2661722702   -2.3629195248   -0.7763527485
 H   -0.7034745989   -2.2266874199    1.6169486745
 H   -2.7763989936   -3.5439900399    1.3434157723
 H   -3.2970246034   -1.8654344089    1.6012321135
 H   -3.7111729328   -0.7423107126   -1.1579079237
 H   -3.3359318493   -2.0791232456   -2.2649953437