18

 C   -0.0911199842    1.5602731374   -0.0707575671
 C   -0.0205857230    0.0229011131   -0.0649702275
 C   -1.4004397595   -0.6208370627    0.1684213622
 C   -1.4114567987   -0.7411303859    1.7289503628
 N    0.0047786906   -0.9455161272    2.1426204743
 C    0.6834398848   -0.5378428929    1.1522706919
 N    2.0096588066   -0.7058437792    0.7769516469
 C    1.9498322239   -0.7572444971   -0.6328153952
 N    0.8516948821   -0.4035853836   -1.1858352497
 H    0.9072078844    1.9983158357    0.0126023652
 H   -0.5350921134    1.8976033927   -1.0113082645
 H   -0.7016294961    1.9293409739    0.7585399588
 H   -2.2333570740   -0.0344229978   -0.2272320243
 H   -1.4314148883   -1.6173699084   -0.2822750113
 H   -1.8217272059    0.1622985274    2.1987290509
 H   -2.0105427059   -1.5844971209    2.0835670786
 H    2.6407968557   -1.2917616284    1.3032076880
 H    2.8325480708   -1.0769682761   -1.1781690502