17

 C    0.0516707973    1.4916605577    0.0461430730
 C    0.0474967268   -0.0144010958   -0.0187525394
 C    0.1147571992   -0.6944418706   -1.2374867074
 C    0.1070420774   -2.0836718470   -1.2294947350
 C    0.0328491952   -2.7489923572   -0.0121741194
 C   -0.0314998580   -1.9959983104    1.1630798423
 C   -0.1136666864   -2.6524271382    2.5176352554
 N   -0.0239533033   -0.6573646201    1.1532807667
 H    0.1108612706    1.9406350767   -0.9484013843
 H   -0.8553129857    1.8540902377    0.5405541285
 H    0.9002069362    1.8449090653    0.6408294313
 H    0.1717297754   -0.1415765696   -2.1686550743
 H    0.1581819403   -2.6405594990   -2.1598691933
 H    0.0245920114   -3.8324612164    0.0326010064
 H    0.7321636321   -2.3458869373    3.1413607657
 H   -1.0232272014   -2.3373203010    3.0390272055
 H   -0.1145141671   -3.7425307048    2.4410352585