18

 C    0.0083245225    1.5467764399   -0.4172069046
 C   -0.0003638749    0.0802790757   -0.0520152823
 C    1.2242775614   -0.7508401694   -0.1289965153
 C    0.6238707977   -0.4581552744    1.2463799076
 C    1.3343938291    0.4316440517    2.1927630432
 O    1.2317543093    0.3643477394    3.3929056267
 O   -1.1658180572   -0.5946771531   -0.4717201279
 C   -2.2921057319   -0.3814310344    0.2539795919
 N   -3.3916027290   -0.8354464075   -0.1610654179
 H    0.9671715678    2.0126472340   -0.1793696634
 H   -0.1683683939    1.6510532023   -1.4919784469
 H   -0.7763592945    2.0969755365    0.1118108205
 H    1.1235051848   -1.7656095877   -0.4936173077
 H    2.1564071520   -0.2555728023   -0.3807070355
 H    0.0781715298   -1.2649367019    1.7230212674
 H    2.0016873099    1.1873452513    1.7172299784
 H   -2.1146033643    0.1742570049    1.1829358117
 H   -4.1308092284   -0.6169872350    0.5040071241