19

 C   -0.2484883227    1.7534012348    0.1857819617
 C    0.0409205964    0.2608016586    0.0714013150
 C   -1.2430331099   -0.5515385736   -0.2132537102
 C   -1.8673355517   -0.2270389556   -1.4905580642
 C   -2.3569874548    0.0480361224   -2.5536492774
 C    1.2064133380   -0.1319432502   -0.9012228821
 C    1.8471536445   -0.9179748557    0.2499591781
 O    2.7503451270   -1.6993541210    0.3218379515
 C    0.8399647094   -0.3623933235    1.2688659518
 H    0.6703931281    2.3163731380    0.3796583425
 H   -0.6954747408    2.1382467611   -0.7358395668
 H   -0.9448878482    1.9570812608    1.0073917829
 H   -1.0057307052   -1.6237433294   -0.1938218962
 H   -1.9592890584   -0.3843607373    0.6021042662
 H   -2.8017683638    0.2832274420   -3.4887974750
 H    0.9426083525   -0.7047228505   -1.7943983089
 H    1.8258995552    0.7171965949   -1.2094558874
 H    1.2967684284    0.3863224442    1.9249483354
 H    0.3278843462   -1.1009208202    1.8929557831