19

 C   -0.0021229279    1.4243083260   -0.1300247442
 C   -0.0637120255   -0.0687110117   -0.0274472063
 O    0.2449314623   -0.7890820189   -1.2467620446
 C   -0.4434751082   -1.9132115956   -0.6439705472
 C   -0.9069082410   -2.9701687491   -1.5986914580
 C    0.3269046117   -2.2636631388    0.6687860509
 C   -0.6615165292   -1.5390141367    1.5551016727
 C    0.6185204281   -0.8470963939    1.1423164376
 C   -1.3121367045   -0.9718928780    0.2592733775
 H    1.0207008887    1.7505244140   -0.3489305825
 H   -0.6558939242    1.7874188308   -0.9281105183
 H   -0.3119220297    1.8832414520    0.8140245237
 H   -0.0495313102   -3.4492583332   -2.0843688555
 H   -1.4723617640   -3.7414374226   -1.0664878790
 H   -1.5451368183   -2.5404151363   -2.3759806405
 H    0.9632050549   -3.1109676216    0.8879899385
 H   -1.0537819242   -1.7844052495    2.5307638608
 H    1.4842145009   -0.5800927926    1.7340385941
 H   -2.3462710497   -0.6943258944    0.0659493503