27

 C    0.0745514919    1.5813064151   -0.1983098662
 C   -0.1063265343    0.0590707586   -0.1842194068
 C   -1.5630725418   -0.4825791810   -0.1679805633
 C   -2.3380255526    0.1115840139    1.0246263689
 C   -2.2796524160   -0.1145797785   -1.4802655969
 C   -1.4412391290   -2.0266706248   -0.0304969160
 C   -2.6800604863   -2.9024328158   -0.2759466633
 C   -2.3280482100   -4.3918724436   -0.2151195634
 O   -3.7659714123   -2.6128767746    0.6073578115
 H    1.1394208325    1.8327958904   -0.2367861824
 H   -0.3991431503    2.0456666139   -1.0687918335
 H   -0.3388571323    2.0530093538    0.6979241317
 H    0.4052576981   -0.3634918558   -1.0594994983
 H    0.4169702254   -0.3458680766    0.6928131176
 H   -2.4528261105    1.1952719473    0.9242624542
 H   -3.3331685076   -0.3301919024    1.0942522540
 H   -1.8117572802   -0.0784000471    1.9683571299
 H   -1.7875509637   -0.5721711148   -2.3467859872
 H   -3.3229333890   -0.4428891662   -1.4696756899
 H   -2.2858981784    0.9682738540   -1.6366012413
 H   -0.6709951457   -2.3698904063   -0.7349424732
 H   -1.0482159819   -2.2596956407    0.9714178193
 H   -3.0848580447   -2.6850811105   -1.2703797637
 H   -1.9013383959   -4.6515639439    0.7621151735
 H   -3.2269036638   -4.9958388973   -0.3657392830
 H   -1.5935731616   -4.6622240113   -0.9805395614
 H   -3.4650686799   -2.7922650754    1.5054467394