17

 O   -0.1437548780    1.5129240340   -0.2798191305
 C   -0.0224655405    0.1733279904    0.1826042661
 C   -1.3536349189   -0.5443024668    0.1253587185
 C   -1.8686962844   -1.2532452973   -1.0890968142
 O   -0.8062082284   -1.8920016375   -1.8119435425
 C   -0.5896230456   -2.8132766821   -0.6972340924
 C    0.7943215550   -2.9798385342   -0.2874927000
 C    1.9305036957   -3.1675534719    0.0575949182
 C   -1.5935289893   -2.0438257555    0.1719005163
 H   -0.3449167207    1.4715522899   -1.2204724986
 H    0.7366418174   -0.3788696660   -0.3809379261
 H    0.3202030266    0.2452424173    1.2197292471
 H   -2.1455423648   -0.0136041571    0.6521638073
 H   -2.7809514615   -1.0343506654   -1.6314686770
 H   -1.0055977386   -3.7904902039   -0.9743185680
 H    2.9362571673   -3.3180308902    0.3648671234
 H   -2.2651394512   -2.5110764936    0.8787766824