15

 N   -0.0864017920    1.2834858103    0.0162995904
 C    0.0067353971   -0.0664529509    0.1780493369
 O    0.9216085893   -0.6531129485    0.7075613528
 O   -1.1077105289   -0.6717753060   -0.3155552825
 C   -1.1096916006   -2.0890856100   -0.1850965594
 C   -1.4315864486   -2.6675409123    1.2029328442
 O   -2.5920462192   -3.3532303736    0.6779337494
 C   -2.4450235442   -2.7153863430   -0.6069154401
 H    0.7482578572    1.8170056816    0.1852115561
 H   -0.7810081533    1.6601492377   -0.6052007381
 H   -0.2155776547   -2.5036846825   -0.6517009779
 H   -0.6964479538   -3.3570225391    1.6284107984
 H   -1.6973788873   -1.9055293151    1.9456763329
 H   -3.2284039538   -1.9713423597   -0.7991779309
 H   -2.4147208073   -3.4386964987   -1.4290529522