17

 C   -0.0941249762    1.5818291558    0.0795471071
 C    1.4172552261    1.2427499640    0.0796111398
 O    1.1268220639    0.1438925601    1.0286256280
 C    0.0722315263    0.0451271188   -0.0058269297
 C    1.1729495616    0.2516699250   -1.0902982361
 C    0.8364546714    0.6959927053   -2.5314528487
 O    1.8189690205    0.0572339574   -3.3306672807
 C    2.1597707137   -1.1033342703   -2.6168479311
 O    2.1340188846   -0.7602249977   -1.2492198352
 H   -0.4631476750    1.9278315408    1.0440089055
 H   -0.5271196282    2.1266143319   -0.7636307673
 H    2.2801867996    1.8761815808    0.2851174679
 H   -0.6697898682   -0.7468096977    0.0997907855
 H   -0.1766885595    0.3701582260   -2.8139105971
 H    0.9149626444    1.7738204433   -2.6885066229
 H    1.4394763281   -1.9169214261   -2.8214490282
 H    3.1704521667   -1.4143154873   -2.8938175768