18

 C    0.0285144276    1.5157756046   -0.1633047074
 C    0.0637535668    0.0025169217    0.0308612395
 N    0.6303896008   -0.6729660642   -1.1436677722
 C    1.5829958315   -1.4082486127   -0.7426118031
 C    2.4541841124   -2.2754787605   -1.5846711146
 O    1.8702505834   -1.4421500650    0.5918140023
 C    0.9474908389   -0.5212173582    1.2314065996
 C    1.6909123533    0.4827169731    1.9787722564
 C    2.2873291296    1.3099201470    2.6142291895
 H    1.0358037665    1.9151259901   -0.3067940249
 H   -0.5664859804    1.7507190913   -1.0494083662
 H   -0.4177332616    2.0140208824    0.7020538119
 H   -0.9628636668   -0.3555799852    0.1721323997
 H    3.5022108894   -1.9813350174   -1.4715450680
 H    2.3730405976   -3.3189445165   -1.2644381592
 H    2.1579614469   -2.1883174638   -2.6293035546
 H    0.3419811849   -1.1102048899    1.9278944442
 H    2.8184058193    2.0404893934    3.1734691370