18

 C    0.0281404342    1.4980443560   -0.1880270612
 C   -0.0145572588   -0.0170085520    0.0824253045
 C    0.7534447066   -0.3801608586    1.3585691049
 C   -1.4343188562   -0.5118867815    0.1107072771
 C   -2.1300988500   -1.1158007821    1.1283196702
 N   -3.3927440887   -1.3555779186    0.6259990656
 C   -3.4076399433   -0.8947938793   -0.6549430922
 N   -2.2505351010   -0.3821551954   -0.9978828989
 H    1.0605022489    1.8429313256   -0.3104296519
 H   -0.5314593637    1.7398767115   -1.0945731227
 H   -0.4192800503    2.0526467995    0.6447554282
 H    0.4796937187   -0.5113488186   -0.7655873711
 H    0.3084343631    0.1020375118    2.2369222775
 H    0.7583631578   -1.4611793499    1.5317867652
 H    1.7929032708   -0.0449786870    1.2909971383
 H   -1.8600823051   -1.3939259458    2.1326788143
 H   -4.1542863193   -1.7937920777    1.1155160324
 H   -4.2841747638   -0.9630416078   -1.2823509202