22

 C    3.1254093430   -1.1515025541    1.2609274337
 N    1.8538870802   -1.1770697619    0.5462784019
 C    0.7657466596   -1.8907054672    1.2041576307
 C    0.7383451135   -0.3979722876    1.1034897157
 C    0.9247363625    0.5404798558    2.2666045581
 C   -0.2634420911    1.2509200105    2.8705727990
 C    0.5374289305    0.2930329813    3.7141310679
 C   -0.1047399458   -0.9741962281    4.2051531108
 O    0.9212749217   -1.9219127635    4.4949089385
 H    3.0278903073   -1.1566718157    2.3564718585
 H    3.7057172938   -2.0317004374    0.9659011277
 H    3.6929656605   -0.2629116335    0.9636351803
 H    0.1310190212   -2.4894052437    0.5542628099
 H    0.9704792492   -2.3187051712    2.1821613295
 H    0.1158913143    0.0262920222    0.3155125799
 H    1.8060366931    1.1696509662    2.1599325374
 H   -0.1987163403    2.3146315597    3.0702992187
 H   -1.2473147932    0.9196806466    2.5498817283
 H    1.2074175272    0.7366620489    4.4459798981
 H   -0.6889101834   -0.7535320182    5.1119267589
 H   -0.8030917482   -1.3629846721    3.4497033636
 H    0.5149132843   -2.6847593870    4.9178462528