21

 C   -0.1843153595    1.5810405829   -0.0138002804
 C    0.0118195477    0.0721795533    0.0154144039
 C    1.2357021605   -0.5949985304   -0.6597262924
 C    2.1579715108   -0.1544324016    0.5416180383
 C    3.2069782107   -1.2397003521    0.7577423305
 C    2.9936975977   -2.2087851419    1.8981256118
 C    2.3745121959   -2.4829337234    0.5469769394
 C    1.0157217590   -1.8611429553    0.2521169409
 C    0.7968280376   -0.6116241020    1.1673331629
 H    0.7326926385    2.1331268931    0.2091877508
 H   -0.5336443794    1.9053978157   -1.0005598647
 H   -0.9420016437    1.8873924478    0.7164191138
 H   -0.9367289921   -0.4298169435   -0.2135634783
 H    1.5016456722   -0.5954323233   -1.7200491486
 H    2.4710609129    0.8848791811    0.6353239091
 H    4.1966842437   -1.1214361942    0.3316316690
 H    3.8439016891   -2.8244574980    2.1754264440
 H    2.3636297529   -1.9297762321    2.7356714357
 H    2.7206152862   -3.3229941056   -0.0441121021
 H    0.1642602454   -2.5140460431    0.0501067410
 H    0.5319518240   -0.6163551674    2.2269202853