19

 C    0.0011602934    1.5021368874    0.1364786800
 C   -0.0458462787   -0.0322800448   -0.0000753791
 C   -1.4860074400   -0.5618868744   -0.0427772002
 O   -2.1012014479   -0.2266111020    1.2121496370
 C   -3.4059128250   -0.5603765000    1.3373394033
 C   -3.9302417954   -0.1558198013    2.6939508731
 O   -4.0384759997   -1.1050517659    0.4698429372
 C    0.6692059698   -0.4882911014   -1.1903157812
 C    1.2378602613   -0.8546703945   -2.1837426421
 H    1.0343084356    1.8507133001    0.2052144809
 H   -0.4611604417    1.9786542291   -0.7334047472
 H   -0.5374219493    1.8133280247    1.0342288768
 H    0.4341821563   -0.4732665739    0.8840167313
 H   -2.0503352392   -0.1083536823   -0.8631536143
 H   -1.5052176659   -1.6463258357   -0.1804581143
 H   -3.8229645872    0.9239521296    2.8312101425
 H   -4.9788718024   -0.4385527918    2.7758835296
 H   -3.3489009178   -0.6428333062    3.4819461822
 H    1.7495864338   -1.1826069068   -3.0545517854