16

 N   -0.1075264873    1.4745119234   -0.0710901798
 C   -0.1215647636    0.0278998049   -0.0505051467
 C    0.8771985014   -0.5928231455   -0.8833503324
 N    1.6412490482   -1.1211091991   -1.5743958604
 C   -0.4882275728   -0.8121587287    1.1923586977
 N   -1.4305780005    0.0250596645    1.9563341766
 C   -2.4413499701   -0.0957435520    0.8441265557
 C   -1.4068375463   -0.7919352616   -0.0320852652
 O   -1.7953965274   -1.7004187009   -0.9830301428
 H   -0.5560685330    1.7820594480    0.7923125307
 H    0.8541732969    1.7998157267   -0.0188844574
 H    0.1756768166   -1.5364463673    1.6490191994
 H   -1.7472533147   -0.4466966602    2.7958909917
 H   -3.2569548445   -0.7817968336    1.0875263704
 H   -2.8480007355    0.8572166253    0.4932279067
 H   -1.1043882573   -1.7876882641   -1.6517785542