22

 C    0.0594240271    1.4829054726    0.1304311202
 C   -0.0422775913   -0.0032530140   -0.0383565903
 C   -0.9805028813   -0.8393106960    0.7804936281
 C   -1.0826399724   -2.2335562757    0.1917988070
 C    0.3923624501   -2.0058652951   -0.1773618306
 N    0.5115024503   -0.9604298985    0.9821059830
 C    0.4580905372   -0.8513477892   -1.2149001564
 C   -0.3852789569   -0.9234414093   -2.4867089157
 C    1.9190995441   -0.5301475117   -1.5503448081
 H    1.0605440361    1.8452997776   -0.1240132403
 H   -0.6635145472    2.0021091434   -0.5091844199
 H   -0.1440329530    1.7658943645    1.1678894192
 H   -1.6094415037   -0.3941754795    1.5447012978
 H   -1.1725913694   -2.9766558579    0.9889096085
 H   -1.8090440525   -2.4526400385   -0.5964505264
 H    1.1036773972   -2.8300851165   -0.2250317841
 H   -1.4455907522   -1.0834190949   -2.2767104328
 H   -0.2998768351    0.0092070130   -3.0559804659
 H   -0.0421910762   -1.7346841728   -3.1396148983
 H    2.3357274109   -1.2979664346   -2.2118697497
 H    2.0068586238    0.4314118859   -2.0681665183
 H    2.5333372645   -0.4882014232   -0.6465403069