20

 C   -0.0553389933    1.5097259398    0.0507238456
 C   -0.0060732199    0.0553271938    0.0226359988
 C    0.0276152195   -1.1471883272    0.0068563713
 C    0.0619479627   -2.6112351549   -0.0236569903
 C   -1.3073921565   -3.1428486642    0.0966556393
 N   -2.3766228830   -3.5723046751    0.1815312001
 C    0.7767303147   -3.1860067277   -1.2933689877
 C    2.2097985756   -2.6516594520   -1.3803083323
 C    0.7530716880   -4.7184406045   -1.2892491125
 H    0.7365518696    1.9213929572    0.6855252210
 H    0.0676366319    1.9305619179   -0.9528722811
 H   -1.0151610131    1.8611206957    0.4440586964
 H    0.6179127075   -2.9741679051    0.8540113990
 H    0.2117004818   -2.8241322756   -2.1603630889
 H    2.8072502720   -2.9930360528   -0.5263334811
 H    2.6939525026   -3.0179403926   -2.2903838789
 H    2.2317557618   -1.5595599499   -1.3951508638
 H   -0.2664314248   -5.1111254697   -1.2550606027
 H    1.2348229358   -5.1048398036   -2.1921978321
 H    1.2999701270   -5.1167110397   -0.4261483603