14

 O    0.0987592239    1.4130613874    0.3149316749
 C    0.0784513381    0.0108540634    0.0518110690
 C   -1.3009008728   -0.5290295142   -0.0414263993
 C   -1.9392348277   -1.2464174229   -0.9773174143
 O   -1.5188921425   -1.7400432854   -2.1486564740
 O   -3.2239328240   -1.5285296346   -0.6038183489
 C   -3.4523182803   -0.9310522927    0.6532828486
 O   -4.5094166922   -0.9652564120    1.2156250979
 N   -2.2568624548   -0.3717498708    0.9951486644
 H   -0.3504401019    1.8497879044   -0.4172768104
 H    0.6233880905   -0.2515740391   -0.8649681522
 H    0.6202089515   -0.4350092051    0.8945715308
 H   -2.2786765496   -2.1226824605   -2.6038310050
 H   -2.1640647980    0.2657914320    1.7672587285