17

 O    0.1925873754    1.4543985996   -0.0904415982
 C    0.0420632810    0.0558035479   -0.0056461878
 C    0.8321141502   -0.5384892383    1.2211306494
 N    0.1111710194    0.0651916787    2.3440554409
 C   -1.1005504421   -0.2892825904    2.3336220870
 N   -2.1714416559    0.7268900710    2.3023502818
 C   -2.5853732740   -0.0130556831    1.0434348336
 C   -1.4272562019   -0.4329696249    0.0948335154
 C   -1.7761542056   -1.2350901652    1.3243411078
 H   -0.0959070935    1.8174481950    0.7575217884
 H    0.4634168436   -0.3407081199   -0.9363587972
 H    0.8037693308   -1.6353539749    1.1802783401
 H    1.8701787594   -0.2024165486    1.2171651679
 H   -2.9032655232    0.5089972600    2.9831190784
 H   -3.5970524511    0.0964813383    0.6707703356
 H   -1.8300339666   -0.8124442004   -0.8418381336
 H   -2.0089361357   -2.2895656350    1.3946273505