19

 C   -0.1946788973    1.5128164195   -0.0365182403
 C    0.0287499626    0.0202028847    0.0338305118
 C    1.3480132534   -0.6122796497   -0.2204095691
 O    2.4909291141    0.1109727045   -0.4837890542
 C    0.7636205083   -0.6632749527    1.2203434138
 C    1.4531810950    0.1168397671    2.2469657486
 O    2.1120123205    1.1293696280    2.0107024870
 C    1.3868695531   -0.3736407734    3.6862130185
 O    2.1140567170    0.4477592192    4.5462449726
 H    0.6644232781    2.0765786998    0.3273697957
 H   -0.3794520832    1.8064557566   -1.0750146364
 H   -1.0663740192    1.8054810940    0.5569209577
 H   -0.8250899998   -0.5726206773   -0.2852927492
 H    1.3655652213   -1.5663984169   -0.7389546165
 H    2.6038619119    0.7633119406    0.2293505710
 H    0.3444864429   -1.6036464756    1.5628426673
 H    0.3247553341   -0.4234064828    3.9800571952
 H    1.7595941532   -1.4120838392    3.7074066738
 H    2.4967207041    1.1345482137    3.9768341624