17

 C   -0.1023681138    1.5329471048    0.0983933727
 C    0.0157320121    0.0076776891   -0.0254861901
 C    0.8520969481   -0.4597321866   -1.2022639232
 C    1.8516192645   -1.2684524086   -0.8439071663
 C    1.8788436100   -1.4239658613    0.6400416744
 O    2.0892554618   -0.1809464763    1.3422513014
 C    0.7359639868   -0.6409118597    1.1712191867
 C    0.0025582394   -0.9609869943    2.3605827986
 C   -0.6538700112   -1.2033706017    3.3383919738
 H    0.8867863137    1.9762708952    0.2370490311
 H   -0.5550215148    1.9630864789   -0.8001343958
 H   -0.7273317965    1.8020893823    0.9551960480
 H   -0.9933939122   -0.4208775506   -0.0938102498
 H    0.6468514005   -0.1234136830   -2.2129810401
 H    2.5729474150   -1.7323811045   -1.5047008901
 H    2.2756377361   -2.3041790849    1.1363364968
 H   -1.2197378796   -1.4256802487    4.2091667118