15

 C   -0.0599697736    1.4211739574   -0.3146649449
 C   -0.0287809388   -0.0512551666   -0.1111139979
 C   -0.9052876173   -1.0563480641   -0.3820707241
 C   -0.2287953093   -2.2229794775    0.0673099668
 C   -0.6965273916   -3.6540421886    0.0693096376
 C   -1.2541774860   -4.0714101208   -1.2178653409
 N   -1.7087933638   -4.3920879250   -2.2300108466
 N    0.9520627562   -1.9439413062    0.5635032192
 O    1.0806638985   -0.5645931024    0.4551927490
 H    0.0514567147    1.9496935848    0.6375150765
 H    0.7579495400    1.7417302000   -0.9678542460
 H   -1.0062311697    1.7178356900   -0.7701087724
 H   -1.8762582192   -0.9841503727   -0.8427451307
 H    0.1458677575   -4.3007565873    0.3320336161
 H   -1.4662074975   -3.7990527112    0.8374600482