19

 C    0.0876444765    1.6617913759   -0.0274197942
 C   -0.0702003589    0.1384167881   -0.0146541731
 C    0.6805066242   -0.5340325628   -1.1498458957
 O    2.0824502643   -0.3348952732   -0.9987725856
 C    2.6970503538   -1.2826106865   -1.8277970305
 O    1.8166623143   -2.3958621999   -1.9483176167
 C    0.6050547553   -2.0779752066   -1.2602656351
 C    0.5199227056   -2.7774348906    0.0232166427
 C    0.4360731726   -3.3678165770    1.0666429865
 H    1.1410813332    1.9414834750    0.0559509964
 H   -0.3026143057    2.0951874870   -0.9550356732
 H   -0.4542941018    2.1160224360    0.8070109717
 H    0.2899513164   -0.2770811059    0.9311891765
 H   -1.1294378570   -0.1339124058   -0.0983648971
 H    0.3501907046   -0.1218178053   -2.1191643560
 H    2.8800599216   -0.8795024857   -2.8380055672
 H    3.6440885650   -1.5860636708   -1.3667610473
 H   -0.2320800754   -2.3838715905   -1.8977975042
 H    0.3673583615   -3.8919119814    1.9879855720