16

 O   -0.0777252463    0.0357129031    0.4578440605
 C   -0.0679086751    1.1794430842    0.0913141517
 C   -1.2533923221    2.0778502526   -0.2453599356
 C   -0.6393156537    3.4737732214   -0.1218148850
 O    0.7400414714    3.3186938541   -0.4880105159
 C    1.1933282892    2.0459451509   -0.0837367208
 C    2.0023625964    2.0702818593    1.2337917316
 C    3.2558206643    2.8059165528    1.1046032274
 N    4.2508229912    3.3825566012    0.9952561803
 H   -1.5566731523    1.8705950214   -1.2786195938
 H   -2.1034989589    1.8778376515    0.4085785882
 H   -1.0701852318    4.2138387013   -0.7980036595
 H   -0.7269949237    3.8544423579    0.9065336064
 H    1.8235454829    1.6302777771   -0.8784698638
 H    1.4053660857    2.5214776202    2.0340792328
 H    2.2099399527    1.0352082708    1.5264760857