18

 O    0.5735709809    0.2863326526   -0.6280339405
 C    0.2579067718    1.3804603416   -0.2447648497
 C   -1.0430369651    2.0546874715    0.0549445272
 C   -0.9415770242    2.7661067649    1.4044769606
 C   -0.2720178515    3.3913096363    0.2370521816
 C    1.0718221698    2.6923790286   -0.0638227779
 C    2.2290898893    2.7320173324    0.9045925204
 C    2.4068417499    1.7038842415    1.9646029370
 N    3.2837092699    1.7118072904    0.7823404566
 H   -2.0040725695    1.8476001577   -0.3982035483
 H   -1.8766419392    3.2162949103    1.7216465307
 H   -0.3612479701    2.3321386332    2.2110615494
 H   -0.5652739839    4.3519689827   -0.1647006653
 H    1.4264054553    2.9811573565   -1.0629944734
 H    2.6183263850    3.7307926523    1.0991848041
 H    2.8920460378    1.9695334521    2.8997039473
 H    1.6690608798    0.9103337173    2.0473784776
 H    2.9689294939    0.9881724182    0.1369250125