23

 C    0.0922546938    1.5012893564    0.2138293767
 C    0.0418715754   -0.0251304237    0.0550765246
 C   -1.3452208670   -0.6029454175    0.2808550452
 C   -2.4313524961    0.0920446660    0.9854895033
 O   -2.4455279877   -0.0280770733   -0.4384261207
 C    0.6627435709   -0.4984195220   -1.2938228989
 C    0.6440357423   -2.0303798890   -1.4210431524
 C   -0.0089418709    0.1441654347   -2.5160113199
 O    2.0304340230   -0.0680082554   -1.2054968665
 H    1.0597987398    1.8756654444   -0.1229192180
 H   -0.6958471806    1.9870065509   -0.3686315772
 H   -0.0347718058    1.7887962818    1.2614725261
 H    0.6858412660   -0.4692979555    0.8267440124
 H   -1.3836169843   -1.6921371044    0.3115870797
 H   -3.1866199521   -0.4926152454    1.5095990089
 H   -2.2832206375    1.1002231969    1.3641565256
 H   -0.3647550744   -2.4230495817   -1.5765900673
 H    1.2467339328   -2.3346518436   -2.2843516404
 H    1.0742964088   -2.5004845125   -0.5312900180
 H    0.1175787981    1.2291026061   -2.5027734937
 H    0.4454218935   -0.2385553103   -3.4382286537
 H   -1.0785271834   -0.0764888859   -2.5474080706
 H    2.4461027252   -0.2432099870   -2.0561763253