17

 C   -0.0596696103    1.5153566017   -0.0729468564
 C    0.0143006679    0.0024580943    0.1045505932
 N   -1.3194075493   -0.5759133537    0.0692377936
 C   -1.5754087582   -1.9022731816    0.0296420705
 N   -2.8761789887   -2.2709209196    0.0941258435
 C   -3.0773559704   -3.5722871470    0.0262082610
 C   -2.0130603355   -4.4696314954   -0.1013827177
 N   -0.7565308832   -4.0358627963   -0.1470077020
 N   -0.5173444650   -2.7372674304   -0.0766258828
 H    0.9435823272    1.9478057241   -0.0432017094
 H   -0.5173846346    1.7783339119   -1.0317484023
 H   -0.6465639482    1.9815629696    0.7266419634
 H    0.6127643526   -0.4533647413   -0.6897371903
 H    0.5159196407   -0.2481606847    1.0494127020
 H   -2.1182919702    0.0136179918    0.2396813918
 H   -4.1074094293   -3.9206591248    0.0756778218
 H   -2.1598555854   -5.5418355385   -0.1611812699