21

 C    0.0889175205    1.1796248096   -0.3366523864
 O   -0.0537643033   -0.1034954595    0.2420172230
 C   -1.3377074782   -0.6596912058    0.1204744293
 C   -2.4079217967    0.0251811766    0.9476479115
 C   -1.7898167338   -1.2632811299   -1.1964194623
 C   -0.5936910714   -1.8390255497   -1.9651845794
 C   -0.2435303090   -2.7481004810   -0.7444660648
 C   -1.4337267571   -2.1508391586    0.0136727700
 O   -2.2970558978   -2.9035920963    0.7957672742
 H    1.1565101762    1.4136809679   -0.3334251350
 H   -0.2794907518    1.2002005061   -1.3719306172
 H   -0.4395229904    1.9552301590    0.2352382011
 H   -2.6045139569    1.0398465126    0.5876056558
 H   -3.3429754434   -0.5366084960    0.9092096739
 H   -2.0911475332    0.0947006539    1.9941679024
 H   -2.7604027595   -1.0267270676   -1.6179538598
 H   -0.8963193295   -2.4153754076   -2.8417039530
 H    0.1745191396   -1.1208295386   -2.2620161268
 H   -0.4079912662   -3.8061503866   -0.9587986675
 H    0.7397948293   -2.6109588430   -0.2886633276
 H   -1.9720103774   -2.8924332954    1.7033430984