15

 C   -0.1263887507    1.5019529881    0.0191915690
 C    0.0668671767    0.0085794876    0.0061301062
 O    1.1275893332   -0.5618434287    0.0065665458
 N   -1.1293865041   -0.7588919558   -0.0088937528
 C   -1.2346577552   -2.1276494254   -0.0310072765
 C   -2.5873432705   -2.3506350237   -0.0313218126
 N   -3.3200147097   -3.5223427880   -0.1107507449
 N   -3.2317667760   -1.1340206487   -0.0097261358
 N   -2.3553859194   -0.1829554185    0.0008657999
 H    0.8571048791    1.9699359763    0.0381725204
 H   -0.6852847845    1.8229814809   -0.8633565292
 H   -0.7125814343    1.8057107875    0.8898492178
 H   -0.3664130908   -2.7601764918   -0.0466397468
 H   -2.9023174414   -4.3169563032    0.3509711297
 H   -4.2807440423   -3.3873271064    0.1739065897