17

 N   -0.1248388950    1.0070644478   -1.4507687386
 C   -0.3708677050   -0.3006359023   -1.7446883043
 O    0.1099111038   -0.8551892303   -2.7180437985
 C   -1.2869042019   -0.9907266249   -0.7666032813
 C   -2.0705413304   -2.1620509446   -1.2705820229
 N   -1.0119693189   -2.3533668112   -0.2985129966
 C    0.2018890251   -3.0534769220   -0.7060609106
 C    0.0864749935   -4.5213878817   -0.3269305836
 O    0.8181615289   -5.3793287388   -0.7453425875
 H    0.4815141239    1.5274684450   -2.0632377805
 H   -0.4840088258    1.4551052476   -0.6268208052
 H   -1.7258256457   -0.3538349120   -0.0005391978
 H   -3.0843943137   -2.3214475950   -0.9140840052
 H   -1.8732758633   -2.4422381417   -2.3031981996
 H    0.4548609458   -2.9597164709   -1.7679817945
 H    1.0471448466   -2.6421402252   -0.1368086188
 H   -0.7313483180   -4.7418928399    0.3958234554