21

 C   -0.0721355780    1.4824262035   -0.1566022187
 C    1.2994040417    0.8631477940   -0.0465509506
 C    0.0685639049   -0.0117574264    0.0258435242
 C   -0.3280243154   -0.6658661859    1.2876348677
 C   -0.1576294811   -2.0725134346    1.8205678497
 C    0.4649638108   -1.5689851902    3.1192402644
 C   -0.2515441998   -0.2244300319    2.8181282249
 C   -1.7621561906   -0.5634747079    2.9405284416
 C   -1.5593747586   -1.4396314502    1.7080761543
 H   -0.4325123308    2.0622074485    0.6865109148
 H   -0.3961005522    1.8542312284   -1.1224531316
 H    1.9162597250    0.8101534721   -0.9369109480
 H    1.8553367011    1.0291961345    0.8700865501
 H   -0.1325012477   -0.6139935499   -0.8572376992
 H    0.0925688461   -2.9627564316    1.2566513396
 H    0.2143829943   -2.0698621404    4.0624210901
 H    1.5512268663   -1.4797875351    3.0288011207
 H    0.1417861651    0.7151396211    3.2028475363
 H   -2.0974152623   -1.0261300773    3.8769101960
 H   -2.3924153394    0.3007091262    2.7123574516
 H   -2.3120532396   -1.8770759271    1.0636763722