12

 O   -0.0575502751   -0.0153526810    0.3869174984
 C   -0.0156168822    1.1617052258    0.1808407378
 O   -1.1164399046    2.0183576420    0.1069563910
 C   -0.6129201879    3.2520233867   -0.1367754356
 N    0.6646244570    3.3121222795   -0.2257976073
 N    1.0528811715    2.0015221726   -0.0213611036
 C    2.4338830901    1.5923269338   -0.0767893188
 C    2.9943176667    1.6384512151   -1.4352909761
 N    3.4468127407    1.6749150700   -2.4964989579
 H   -1.3009953460    4.0758038779   -0.2342445568
 H    3.0356747458    2.2259550312    0.5820158203
 H    2.4691695641    0.5651962961    0.2988128286