18

 C   -0.0456153535    1.4051828789    0.1087727203
 N   -0.0116164395   -0.0264969377   -0.1128038506
 C   -1.2035870024   -0.7189565089   -0.0930971129
 C   -2.4886218162   -0.2827847298   -0.2136468466
 O   -3.3014879375   -1.4014791460   -0.1952683959
 C   -2.4564080357   -2.4421620886   -0.0456103945
 C   -3.0529511437   -3.8080652294    0.0906342853
 N   -3.7429900882   -4.0629147808    1.3634632718
 N   -1.2039926490   -2.1031428253    0.0237588686
 H    0.9745454899    1.7946091270    0.1110319163
 H   -0.5855006316    1.8937989021   -0.7105255419
 H   -0.5363599344    1.6907886006    1.0534068618
 H    0.7252565425   -0.5236131067    0.3655068232
 H   -2.9737829659    0.6676491895   -0.3344975291
 H   -3.7690847288   -3.9743157646   -0.7213159341
 H   -2.2445277202   -4.5335564553   -0.0261477690
 H   -3.0936824502   -3.9098281384    2.1307037291
 H   -4.4843734657   -3.3781344167    1.4841603082