19

 N   -0.0726490315    1.2604580498   -0.3553238644
 C   -0.0047733320    0.0513964054    0.0128915379
 C   -1.2593473164   -0.7937987369    0.1463819739
 N   -1.1951059882   -1.8540418519    1.1565272513
 C    0.0439109497   -2.5839684693    1.0194097907
 C    0.1000418276   -3.9746384025    1.5827847746
 C    0.0183701461   -3.7700795240    0.0879923243
 C    1.2662586920   -1.7056490357    1.0935479071
 O    1.1938248305   -0.5761568777    0.2023086747
 H    0.8680642035    1.6536667850   -0.4394081367
 H   -2.1017191668   -0.1295154147    0.3427164767
 H   -1.4373853405   -1.2688085582   -0.8274519777
 H   -1.2477416123   -1.4430627090    2.0858850335
 H    1.0359719666   -4.3222636643    2.0075909274
 H   -0.7909870899   -4.3264346394    2.0895641198
 H   -0.9262306110   -3.9916850523   -0.3942273371
 H    0.8999092484   -3.9751547901   -0.5093194614
 H    1.3909225150   -1.3218601847    2.1174906932
 H    2.1797642292   -2.2397702197    0.8179603421