18

 N    0.0650338949    1.5260246676   -0.0869827649
 C    0.0187148945    0.0645290109   -0.0226098180
 C   -1.4043383677   -0.5377627878    0.0969813906
 N   -2.0438557105    0.0030772583    1.2883426741
 C   -3.4830631462   -0.2745659312    1.3543155700
 C   -4.0527116905    0.1756152754    2.6189837126
 C   -4.5097480478    0.5266502924    3.6727756586
 C    0.7051736489   -0.5162750353   -1.1835792415
 N    1.2091774656   -0.9892311949   -2.1091266448
 H   -0.3070950050    1.8370934600   -0.9807442888
 H   -0.5761046272    1.8669920545    0.6267866874
 H    0.5849240947   -0.2431988382    0.8687391117
 H   -1.9877542836   -0.2297291450   -0.7790909943
 H   -1.3496600594   -1.6399702326    0.0781341974
 H   -1.6023624809   -0.3732163782    2.1223179040
 H   -3.9685421978    0.2518589744    0.5219566928
 H   -3.7178698658   -1.3459714771    1.2169665592
 H   -4.9216733062    0.8437604767    4.5989885138