12

 O   -0.0857989541    1.2295843041    0.0094611878
 N    1.0087295515    2.0642181331    0.0035719451
 C    2.2008508017    1.5307682113   -0.0106680432
 C    2.3833949111    0.1363532176   -0.0199905632
 N    3.4511760791   -0.6205378819   -0.0344077263
 C    2.9513608765   -1.9300467700   -0.0366705679
 C    1.5829646359   -2.0215676305   -0.0238739734
 C    1.1484180634   -0.6583443574   -0.0125520004
 N   -0.0402352155   -0.1368963591    0.0016134750
 H    3.0205888786    2.2426261072   -0.0146787496
 H    3.6556564437   -2.7518339490   -0.0478514671
 H    0.9654274982   -2.9048252955   -0.0226016869