18

 C    0.4096146607    1.4445351399   -0.6379655331
 C   -0.0034872456    0.1023658400   -0.0945145652
 O    1.0147580690   -0.8667085534    0.1133776280
 C    0.3315510167   -0.3924540265    1.2673443973
 C    1.1245800306    0.4410825902    2.2391953053
 O    2.1378078013    1.0402852365    1.9590733685
 N    0.6008672536    0.3978726100    3.5325276559
 C   -0.6906540579    0.9517768136    3.9139292537
 C    0.5972317827    1.5500187301    4.3996178261
 H    1.3053838588    1.8076849879   -0.1336574470
 H    0.6169335001    1.3583106044   -1.7096944748
 H   -0.4013597212    2.1706383975   -0.5138282385
 H   -0.9191216066   -0.3127386639   -0.5229868745
 H   -0.3425489308   -1.1114915741    1.7318291879
 H   -1.2476842628    1.5052424662    3.1617156804
 H   -1.2948516754    0.3394834132    4.5773348610
 H    0.9167513199    1.3738549187    5.4223049594
 H    0.9223817570    2.4915742295    3.9655493196