20

 C    0.0301769256    1.5240301795   -0.2357911483
 N    0.0226712924    0.0754185810   -0.0623141992
 C   -1.0998959902   -0.4786396729    0.7537027576
 C   -0.2388096878   -1.7039193455    1.1987122893
 C    0.6747180179   -0.4366525152    1.1809211687
 C   -0.5093243510   -0.0650942658    2.1613383322
 C   -0.5967733064   -1.5006639073    2.6656721969
 C   -1.5796058735   -2.1856863000    3.5548202464
 C   -0.0964267050   -2.1505894472    3.9118859591
 H    1.0176043386    1.8383119907   -0.5902953472
 H   -0.7007304406    1.7976651555   -1.0041376854
 H   -0.2034735433    2.0964311565    0.6781458701
 H   -2.1420501911   -0.4714259591    0.4292145594
 H   -0.0792017052   -2.6165417403    0.6254122001
 H    1.7489264835   -0.3793617415    1.3659206050
 H   -0.6648179857    0.8597046472    2.7163549857
 H   -2.2567314206   -1.5799724612    4.1492738348
 H   -1.9998284968   -3.1345220355    3.2355406849
 H    0.4649929722   -3.0761940346    3.8289455779
 H    0.2083440670   -1.5216270844    4.7427201220