15

 O   -0.0586045591    1.3747227473   -0.0800054303
 C    0.0262960196   -0.0060923889    0.0162888905
 C   -0.3735396857   -0.7197467210    1.2838008468
 C   -1.2826646773   -0.7785664951    0.0899240397
 O   -2.4730524859   -0.0265577954    0.0928322160
 C   -3.2230310139   -0.5032000292   -1.0146858853
 O   -2.7655943949   -1.8174798590   -1.3039073390
 C   -1.5454782700   -2.0017558073   -0.7099261435
 O   -0.8725985511   -2.9778526682   -0.8561606332
 H   -0.9931072038    1.6113564258   -0.0049745338
 H    0.8340533169   -0.4200341324   -0.5786550058
 H    0.1346787135   -1.6419516127    1.5452030693
 H   -0.7136963228   -0.1057005848    2.1108452382
 H   -4.2794615352   -0.5383516818   -0.7385741935
 H   -3.0708938405    0.1299707328   -1.9002262662