16

 O    0.1183159692    1.1675735424    0.4927890764
 C   -0.0189546829   -0.1717955767    0.1004514664
 C   -1.4550761363   -0.5476367270   -0.0900372480
 N   -2.4322186819    0.2258755154    0.1523571536
 C   -3.6516751109   -0.5139122443   -0.1808497712
 C   -3.1290820950   -1.9563757977   -0.4985644210
 O   -1.7053520854   -1.7971902555   -0.5548994609
 C   -3.5129545168   -2.9369958696    0.5967957954
 O   -2.7577739972   -3.3715233026    1.4216176293
 H   -0.7767974674    1.5016646620    0.6446882470
 H    0.5173237683   -0.3560450468   -0.8422702421
 H    0.4146374314   -0.8578520680    0.8452620525
 H   -4.3570884954   -0.4993622720    0.6566842408
 H   -4.1521538483   -0.0561106857   -1.0403485324
 H   -3.4846147284   -2.3331202889   -1.4628959512
 H   -4.5972997829   -3.1965647151    0.5888617854