13

 N   -2.3736035244    1.2171067348    0.0522586124
 C   -2.5262057584   -0.1308948844    0.0914507501
 O   -3.5679023580   -0.7280065862    0.1795337319
 O   -1.2811624374   -0.7117451304    0.0339275708
 C   -1.1601457923   -2.0714709770    0.1133808258
 C    0.0269795665   -2.7065842561    0.2987641704
 O   -0.1682776010   -4.0332935296    0.2961419256
 N   -1.5189315336   -4.2971666761    0.1079650295
 C   -2.1066889776   -3.1311765995   -0.0017328144
 H   -3.2041082251    1.7712966553   -0.0576503107
 H   -1.4793389377    1.6207945651   -0.1637547230
 H    1.0371785005   -2.3578587835    0.4355774033
 H   -3.1706161714   -3.0683495824   -0.1496369916