14

 O    0.1939221139   -0.1172370121   -0.0839888865
 C    0.0076108397    1.0775321032   -0.1030906287
 C    1.1621787690    2.0036233356   -0.0134655009
 N    2.0583241261    2.7325644619    0.0415070064
 C   -1.2968905516    1.7636476397   -0.1689949421
 C   -2.6205463017    1.1245933627   -0.5724472797
 C   -2.7288447949   -0.3035648895   -0.0325283630
 O   -2.4217049185    0.1652879573    1.3177985541
 C   -2.4138116746    1.4934529765    0.8620913107
 H   -1.2400665256    2.8190398882   -0.4186461353
 H   -3.2357183007    1.5708067595   -1.3416857160
 H   -3.7558384279   -0.6786917599   -0.0653102205
 H   -2.0176250702   -1.0491651105   -0.3839639378
 H   -2.7861921128    2.2764907073    1.5119116293