21

 C   -0.0990630442    1.5280237482    0.2107615550
 C   -0.0370508886    0.0159728186    0.0397759859
 C    1.0472184838   -0.4846752784   -1.0014276059
 C    1.4059080870   -1.9324873840   -0.5734859205
 C    2.1301914959   -2.4188904565    0.7279911833
 C    2.6747885876   -1.5055227316    1.8291869978
 C    1.5815924375   -0.4536525236    1.9151606175
 C    0.5140970693   -0.8092626318    1.1843425811
 C    0.6489041014   -2.2372396977    0.6827555023
 H    0.8730999550    1.9367320478    0.5052817661
 H   -0.3911176479    2.0131134150   -0.7265377818
 H   -0.8300591755    1.8115751973    0.9746736395
 H   -1.0181792686   -0.3557701272   -0.2813133495
 H    0.6547731282   -0.4905867234   -2.0253289968
 H    1.9027006219    0.1997530779   -0.9810950759
 H    1.4599472484   -2.6696907288   -1.3697427219
 H    2.5591323497   -3.4126320658    0.6283297340
 H    2.8594938873   -2.0817814730    2.7479710544
 H    3.6257219179   -1.0176908636    1.5752598165
 H    1.8012535347    0.5626303124    2.2256667953
 H   -0.1183565908   -2.9916121219    0.8180133834