21

 C   -0.1959364065    1.5747046329   -0.0189937011
 C    0.0568627715    0.0575465970    0.0469606283
 C    0.7723120178   -0.4611543053   -1.1633114046
 C    2.0279729436   -0.9156872176   -1.2808010466
 C    2.4110804558   -1.3558290930   -2.6758456563
 C    2.9366888678   -2.7993092671   -2.7168958540
 C    1.1153050730   -1.1291519091   -3.4852088857
 C    0.1078025698   -0.5337954681   -2.4935843742
 O   -1.0265098754   -0.1919923625   -2.7455224064
 H    0.7470957137    2.1280188232   -0.0741353366
 H   -0.7931392286    1.8231674224   -0.8995124819
 H   -0.7368793142    1.9134154913    0.8697112610
 H    0.6274347515   -0.1901607626    0.9487685183
 H   -0.9102371306   -0.4539375044    0.1239515533
 H    2.7371376778   -0.9848091574   -0.4597339484
 H    3.2107020014   -0.6995946660   -3.0469347119
 H    2.1726238443   -3.5016806307   -2.3668040624
 H    3.2175962576   -3.0829568780   -3.7359806624
 H    3.8194268980   -2.9173052633   -2.0795741225
 H    1.2427141750   -0.4507800708   -4.3337535835
 H    0.7098599466   -2.0633891809   -3.8879814726