21

 O    0.1264619394    1.3800877231    0.2537918094
 C    0.0766315190   -0.0067496964    0.0075924916
 C   -1.3676909211   -0.5109075462   -0.0577252634
 C   -1.4158862762   -2.0362511264   -0.1849507921
 O   -2.5899838817   -2.6000862804   -0.7408202418
 C   -3.8477346496   -2.0236002499   -0.4294161138
 C   -4.0162415369   -1.4487539741    0.9812711479
 C   -3.3826079925   -0.0683788319    1.1765540531
 O   -1.9666406597   -0.0646615920    1.1585706051
 H   -0.4962577184    1.5299177938    0.9764184105
 H    0.5728244837   -0.1885109571   -0.9508797140
 H    0.6187236356   -0.5759587433    0.7818725425
 H   -1.8702916015   -0.0362142405   -0.9151227995
 H   -0.6045898092   -2.3702181855   -0.8426898957
 H   -1.2198150526   -2.4489801368    0.8168870288
 H   -4.0931027292   -1.2341135113   -1.1602171950
 H   -4.5701260256   -2.8320266345   -0.5841599979
 H   -5.0933798699   -1.3415510856    1.1627658304
 H   -3.6360775864   -2.1520071581    1.7309759865
 H   -3.7705344213    0.6175241725    0.4041320767
 H   -3.6601761760    0.3394450505    2.1534347808