18

 C    0.1209106074    1.5201753894    0.0645092874
 C    0.0189014746    0.0341679935   -0.0452341398
 C   -1.0525880705   -0.7587415404   -0.0926717248
 C   -2.5064880451   -0.3759096779   -0.0227863353
 C   -3.2523777350   -0.7658870584   -1.2251161962
 N   -3.8303740794   -1.0812612666   -2.1744966772
 C   -0.6207384260   -2.1979847459   -0.2117829273
 O    0.8000621866   -2.1678295414   -0.2202646872
 C    1.2556403482   -0.8256133702   -0.1249874860
 H    0.6852234839    1.8091130077    0.9597341769
 H    0.6607738541    1.9373002580   -0.7943988021
 H   -0.8559427970    2.0074237007    0.1121764562
 H   -2.9889846999   -0.8590121858    0.8381457603
 H   -2.6213469429    0.7029159637    0.1194143823
 H   -0.9800583630   -2.8100651758    0.6325937385
 H   -0.9955062280   -2.6704090906   -1.1333696460
 H    1.8733247473   -0.5717371336   -1.0021759673
 H    1.8972530847   -0.7055609661    0.7636046477