14

 C   -0.4925979367   -0.7142032329   -1.0490042606
 C   -0.1248461788    0.0935488377   -0.2387005686
 C    0.3251745730    1.0750348096    0.7422197098
 C    1.5608212740    1.8268217896    0.3275062074
 C    2.2998651921    1.7131024764   -0.8198839814
 N    3.3193802195    2.6316951955   -0.6865689019
 C    3.1525087171    3.2482333982    0.5160633030
 N    2.1021856673    2.7874893349    1.1543017545
 H   -0.8269091935   -1.4308854557   -1.7573324917
 H   -0.4819068389    1.7925319153    0.9418713061
 H    0.5133519171    0.5761236611    1.7022893906
 H    2.1958963680    1.0847298206   -1.6872874902
 H    4.0490577278    2.8097472419   -1.3556186481
 H    3.8224567120    4.0180491676    0.8691096912