16

 O   -0.1198173804    1.2884782371    0.0057464386
 N    0.0133243985   -0.1084367384    0.0707645912
 C   -1.1130215733   -0.6744105675   -0.0546447702
 C   -2.5671137973   -0.2223094131   -0.1165950828
 C   -2.9668696978   -1.7009649129    0.0198921969
 C   -2.3602896963   -2.5230865590   -1.0854812498
 C   -1.4410866212   -2.1236923932    0.0281374031
 C   -3.9812917645   -2.2238761485    0.9404020935
 O   -4.7235239377   -1.5363115611    1.6009023712
 H    0.7872494442    1.5858755477    0.1346688170
 H   -2.8464392018    0.3734803735    0.7556325955
 H   -2.8989868798    0.2916813843   -1.0227136105
 H   -2.6339451108   -3.5744309369   -1.0912568194
 H   -2.2617123674   -2.0789925540   -2.0718882426
 H   -0.9534582738   -2.8550563245    0.6601868403
 H   -4.0116093507   -3.3366202235    1.0012155480