20

 C   -0.0461997667    1.4441986893    0.0075868547
 C   -0.0480955362   -0.0442142219   -0.0220913778
 C   -0.0498094841   -0.9164503212   -1.0389558170
 C   -0.0010299075   -2.2674997334   -0.3262910173
 N    1.0505347894   -1.9584039414    0.7262880804
 C   -0.0107288032   -0.9773408595    1.2114823137
 C    0.0998212935   -0.3994291419    2.5983318764
 C   -1.0896118360   -2.0513566747    0.7834579722
 O   -2.4064554056   -1.7151854076    0.4863547869
 H    0.8568867504    1.8290832746    0.4978088210
 H   -0.0844833698    1.8607127498   -1.0028202752
 H   -0.8991449998    1.8411935689    0.5723917617
 H   -0.0474861430   -0.7388312388   -2.1051146670
 H    0.1010947806   -3.1814295834   -0.9101435079
 H    1.0618970478   -2.7417968837    1.3891999099
 H    1.0085328646    0.2017513690    2.7073824567
 H   -0.7615253004    0.2386379102    2.8218558012
 H    0.1278038999   -1.1928357267    3.3523083331
 H   -1.1307397048   -2.8817344863    1.4964491588
 H   -2.3638455893   -1.0207596714   -0.1859312042