16

 C    0.1325378422    0.9628922902    0.5756588164
 O   -0.4713109679    0.2114829764   -0.4757843111
 C   -1.2736643710   -0.7886091011   -0.0845551140
 N   -1.8315916418   -1.5178378101   -0.9539188071
 C   -2.6943841969   -2.5756320710   -0.5079602699
 C   -2.4089949857   -3.9951905067   -1.0475984186
 O   -2.3284162808   -4.5083365649    0.3240435871
 C   -2.4845810721   -3.2605141133    0.8628041779
 O   -2.4168780020   -2.9456629878    2.0099338747
 H    0.7184002877    1.7452370269    0.0927751022
 H   -0.6235434014    1.4240446293    1.2212008841
 H    0.7962183120    0.3362862581    1.1821593633
 H   -1.3863393046   -0.9010612246    1.0003943720
 H   -3.7434444304   -2.2908588768   -0.6504963373
 H   -3.2077040078   -4.4916077924   -1.6003536890
 H   -1.4491644794   -4.0958373521   -1.5559397307