16

 C   -0.0285058309    1.4016749399    0.0104298680
 C    1.2821094221    1.8427167805    0.0000274474
 N    2.0982863460    0.7409452096   -0.0139826445
 C    3.4701510404    0.6672786210   -0.0277642152
 C    4.0898577911   -0.5425460430   -0.0404560391
 C    3.3215884434   -1.7432820405   -0.0395643033
 C    1.9555622397   -1.6760356061   -0.0258756278
 C    1.2974276231   -0.4248803156   -0.0125808288
 C   -0.0292726290   -0.0071897941    0.0026294317
 H   -0.8964131027    2.0441133068    0.0224559139
 H    1.7006970955    2.8361117767    0.0013902259
 H    3.9929548378    1.6153048305   -0.0276537952
 H    5.1720389357   -0.5781028048   -0.0512054964
 H    3.8260191153   -2.7022589596   -0.0497612422
 H    1.3462798984   -2.5728909567   -0.0248702461
 H   -0.8880740957   -0.6599184147    0.0074026718