19

 C    0.1860858580    1.5355032372    0.0906106127
 C    0.0032595151    0.0462555497   -0.0221497781
 C   -0.0517539965   -0.5904110800   -1.1950143966
 C   -0.2429552035   -2.0781799394   -1.3411368841
 C   -0.7964500664   -2.7749109879   -0.0995258025
 O   -1.5084362544   -3.7518512802   -0.1908093675
 C   -0.4557125587   -2.1803694144    1.2204507479
 C    0.9647221931   -1.7532671739    1.5520084170
 C   -0.0738524498   -0.7035275854    1.2648773122
 H    1.0896168388    1.7819600331    0.6625480013
 H    0.2637520895    2.0058953037   -0.8926433871
 H   -0.6555267791    1.9962583173    0.6235169695
 H    0.0576519870   -0.0244433839   -2.1168409745
 H   -0.9149426891   -2.3200901951   -2.1703823233
 H    0.7137608670   -2.5634223066   -1.5941356518
 H   -1.0449316602   -2.5813583883    2.0368037225
 H    1.2836505990   -1.9085021184    2.5764604890
 H    1.7367925094   -1.9091202149    0.8069487351
 H   -0.4457046592   -0.1435342026    2.1175946680