16

 C   -0.0938275344   -1.2188712844   -0.1163644621
 C   -0.0403507536   -0.0187967825   -0.0419391798
 C    0.0044223590    1.4279030467    0.0283458186
 C    0.0060421199    2.0811249241    1.4774212065
 C    1.5258187240    1.7096465369    1.5293571304
 C    1.4412210459    2.1076246455    0.0177790484
 C    1.0275123388    3.5784136826    0.1361082711
 C    0.0905729278    3.5611121397    1.0890020739
 H   -0.1387580314   -2.2778378931   -0.1798387347
 H   -0.7121366098    1.8710284812   -0.6681586014
 H   -0.7044846919    1.7669599308    2.2403108016
 H    2.1649030441    2.3217375461    2.1688421782
 H    1.7061640578    0.6437957010    1.6873282460
 H    2.1974503937    1.8205424242   -0.7110896194
 H    1.4172582950    4.4003770603   -0.4469512540
 H   -0.5005795849    4.3649623610    1.5035471767