13

 N   -0.0141525476    1.1984452228   -0.3042518752
 C    0.0213094946   -0.0083133283   -0.0026846120
 O    1.0198712972   -0.8288292977    0.4581538692
 C    0.1468618716   -1.9895401567    0.5138226345
 C   -1.0539121771   -1.1264129681   -0.0071486567
 C   -2.1534014794   -0.9355321157    0.9227319268
 C   -3.0431186463   -0.7850482381    1.7133762899
 C   -1.5155757999   -1.4915979024   -1.3467628564
 N   -1.8560995381   -1.8012348866   -2.4057800001
 H    0.8871137308    1.6613141004   -0.1803536961
 H    0.4817950396   -2.7765160510   -0.1629656456
 H    0.0268073121   -2.3545201223    1.5340695109
 H   -3.8384050074   -0.6417207663    2.4035807009