23

 C   -0.3201497199    1.6260831760    0.2988414763
 C    0.1954805466    0.2032457711    0.0466801919
 C    0.7097065198   -0.4987205216    1.3055215735
 C    1.9958713142    0.1335772560    1.8356913261
 O   -0.2802782494   -0.5262363626    2.3979594585
 C   -0.0520005488   -1.9254222713    2.5892203196
 C   -0.5513721805   -2.7289881772    1.4328129423
 C   -1.8285108979   -2.4241917394    0.6786410676
 C    0.8028181375   -2.0316058209    1.3439115715
 H    0.4752593590    2.3025040661    0.6255089032
 H   -0.7523089278    2.0450848332   -0.6148657262
 H   -1.0945027706    1.6203919943    1.0711751645
 H   -0.6011083730   -0.3920297109   -0.4027472611
 H    1.0144923766    0.2222790033   -0.6838880000
 H    1.8357619428    1.1829666036    2.0957343648
 H    2.3377139181   -0.3910590144    2.7316061054
 H    2.7887570703    0.0814756765    1.0809744312
 H    0.0816465952   -2.2756784069    3.6070903007
 H   -0.3838140515   -3.7937049184    1.5957244744
 H   -2.1260878265   -1.3834674501    0.8177796111
 H   -1.7320726785   -2.6220873707   -0.3942215787
 H   -2.6404315866   -3.0537995883    1.0587618848
 H    1.7192362409   -2.5845913678    1.1784644485