21

 C   -0.4012124742    1.4490530052    0.2215078709
 C    0.1397472153    0.0449101456   -0.0799454212
 C    0.9738344619   -0.5100591753    1.0471156056
 C    2.3299301922    0.1055549032    1.4112212426
 C    3.0793430538   -1.0469471167    2.0443827804
 C    2.3768874142   -2.1857296359    2.0495588645
 C    2.7825614905   -3.5225567063    2.5825948316
 C    1.0271038634   -1.9268274236    1.4502268492
 O    0.2456020190   -0.9633460419    2.1998716944
 H    0.4108187818    2.1699164094    0.3632999415
 H   -1.0281105281    1.8115498134   -0.5984323789
 H   -1.0051286702    1.4383247371    1.1337581352
 H   -0.6955570201   -0.6397317508   -0.2624213919
 H    0.7446865330    0.0641635783   -0.9955174973
 H    2.8433214180    0.4890764742    0.5189964930
 H    2.2142793918    0.9521401490    2.0987214632
 H    4.0675493645   -0.9281767034    2.4767548931
 H    3.8081513460   -3.5083835664    2.9612507869
 H    2.1215891092   -3.8417495104    3.3980838742
 H    2.7190855935   -4.2968491336    1.8074013737
 H    0.4464685445   -2.7136314111    0.9739694292