19

 C   -0.3304717416    1.5812167539   -0.1116577495
 C   -0.0165452586    0.0859256161    0.0300069365
 C    0.8002709143   -0.4633288636   -1.1552596361
 N    1.9853281224    0.3077974454   -1.4620217359
 C    3.1343253206    0.3687491281   -0.6897059031
 O    4.1863902180    0.7352754968   -1.1968015695
 C    3.0446134980    0.0197534552    0.7313810444
 C    1.9804186129   -0.1953321934    1.5413865611
 N    0.6422382161   -0.2329049399    1.2897212164
 H    0.5894360158    2.1688498437   -0.1314033321
 H   -0.8788968572    1.7715057174   -1.0404925814
 H   -0.9478953571    1.9253697456    0.7235884462
 H   -0.9622013272   -0.4716425339    0.0373971818
 H    1.0349731809   -1.5180381855   -0.9542620300
 H    0.1587946374   -0.4366916370   -2.0400035892
 H    2.1735584052    0.5081470595   -2.4326576611
 H    4.0176250805   -0.0068716290    1.2053489036
 H    2.1975569659   -0.3975033965    2.5877637054
 H    0.0442322537   -0.3019253030    2.0952164925