23

 C    0.5878578782    1.6377625965    0.0116856046
 C    0.1498824824    0.1835168702    0.1369681021
 C    0.8124191252   -0.8483999758   -0.8451235786
 O    1.6002892370   -0.3915120810   -1.9180293117
 C    1.4689598189   -1.5826074977    0.3465219094
 C    2.7815581278   -0.9550258922    0.8940826131
 C    1.9776660446   -0.2076101487    1.9966025737
 C    0.6474873061   -0.6792892022    1.3533214191
 C   -0.4300916008   -1.2132219860    2.2731536152
 H    1.6756882653    1.7609478082    0.0426035850
 H    0.2422798252    2.0555849288   -0.9389953677
 H    0.1700989020    2.2478159990    0.8196597499
 H   -0.9424708093    0.1490169898    0.0637325019
 H    0.0498527465   -1.4795612822   -1.3103651928
 H    2.3411373255    0.1097736491   -1.5629784916
 H    1.4265506556   -2.6735772983    0.3466103012
 H    3.5050139116   -1.6817077499    1.2691777487
 H    3.3182850163   -0.3089269808    0.1900849868
 H    2.1244770076   -0.6556748040    2.9839322615
 H    2.1365582613    0.8697374255    2.0925076291
 H   -0.8739577459   -0.4059448090    2.8698154062
 H   -1.2413799721   -1.6875395924    1.7089156373
 H   -0.0292279389   -1.9568271068    2.9714462575