16

 N    0.1904615801   -1.0129716556   -0.7308665173
 C    0.0905791708    0.1072553890   -0.4529591126
 C   -0.0076977140    1.4962734882   -0.1106428661
 C   -1.2503070363    2.0747809834   -0.1345852088
 C   -1.5688054113    3.4049704459    0.3074660322
 C   -0.7370013136    4.4654203642    0.2711042772
 C    0.5993266676    4.4117615197   -0.4219641295
 C    1.4705411254    3.4417170238    0.3348337309
 C    1.2054002993    2.1254316236    0.3872107268
 H   -2.0849017527    1.4314372711   -0.3986868081
 H   -2.5695437091    3.5416701572    0.7103446788
 H   -1.0423342069    5.3988886029    0.7353723451
 H    0.4669964238    4.0627582277   -1.4547748837
 H    1.0598357153    5.4007233312   -0.4628082333
 H    2.3490051490    3.8255521250    0.8452731113
 H    1.9243378928    1.4583268827    0.8544515971