21

 C   -0.1958355159    0.9868042504   -1.8727107367
 C   -0.0803599731   -0.1569042389   -0.8853417975
 C    1.2587500548   -0.6314906323   -0.3033906374
 C    2.5411236494    0.0347643805   -0.6110297788
 O    3.5961404024   -0.5522447737   -0.6805381406
 C    0.1724656986    0.0212289497    0.5783120858
 C    0.3847925708    1.3927554778    1.1947919966
 C   -0.5230724095   -0.9506935228    1.5204736322
 O    0.1958939722   -1.1692807087    2.7215710351
 H    0.4336315905    1.8411088925   -1.6168434689
 H    0.0835249419    0.6587887030   -2.8791305502
 H   -1.2304816417    1.3435488316   -1.9150094056
 H   -0.7324483512   -0.9917465751   -1.1348553976
 H    1.3809103437   -1.7064500290   -0.1990996503
 H    2.4974442974    1.1316352025   -0.7821271266
 H    0.9562423575    2.0733741421    0.5627187046
 H   -0.5848828967    1.8627310043    1.3960207698
 H    0.9067319974    1.2925446093    2.1499625567
 H   -1.4894220374   -0.5346152931    1.8293783490
 H   -0.7249687573   -1.8974177105    0.9950428179
 H    1.0528701063   -1.5412431596    2.4848117725