20

 C   -0.0726545580    1.5510399647   -0.0989270937
 C   -0.0714594093    0.0188710135   -0.0050374932
 C   -1.4860152477   -0.5321822232   -0.1911393990
 C    0.9534210349   -0.5764400095   -1.0689908334
 N    2.3123786329   -0.5279141125   -0.4492072503
 C    2.0344971041   -0.5308914957    0.7806239362
 O    2.6650396134   -0.1400732768    1.9302357860
 C    1.3326039905    0.2440024500    2.4671951058
 C    0.6364380591   -0.4937488587    1.2806151460
 H    0.9391587776    1.9611131770   -0.0237689126
 H   -0.4875310676    1.8711933269   -1.0603688887
 H   -0.6850434722    1.9971747255    0.6920934687
 H   -1.8752475291   -0.2786737200   -1.1835316919
 H   -1.5054325220   -1.6230888677   -0.0950912466
 H   -2.1774968810   -0.1153709065    0.5492464541
 H    0.6850381568   -1.6060371543   -1.3418321115
 H    0.9609965041    0.0153769085   -1.9895159159
 H    1.1807629275   -0.1805974309    3.4604646441
 H    1.2469155826    1.3322479687    2.4838427533
 H    0.2441823233   -1.4621704291    1.6026578327