15

 O   -0.2845938078    0.1038778136    0.3329367353
 C   -0.1224836200    1.2377978926    0.0218922924
 O   -1.0186225985    2.0852550180   -0.5788227457
 C   -0.0709421290    3.2008091069   -0.5515309404
 C    0.9980877097    2.2942377133    0.0963685130
 C    1.5117600765    2.6396005859    1.4672403787
 C    2.7500763675    2.0058693850    1.9810631019
 N    2.7394696331    3.4364937372    1.6315744137
 H    0.1339662832    3.5591908626   -1.5618905014
 H   -0.4466763081    4.0110104493    0.0770914412
 H    1.8251978577    2.0434970758   -0.5756528479
 H    0.7355007622    2.8995280110    2.1848006465
 H    2.8474289470    1.7924527890    3.0409645886
 H    3.2710521374    1.3088998437    1.3297509725
 H    3.1904397892    3.5760274959    0.7299155616