19

 C   -0.0890269994    1.5759387943   -0.0891709943
 C   -0.1784095467    0.0667549177   -0.2729234794
 C   -0.1353481751   -0.8433410904    0.9247428399
 C   -1.4205958072   -0.6743135833    0.1495645415
 C    1.3073617916    2.0923578064    0.0540837781
 C    1.9993746714    2.6167695619    1.1165149746
 N    3.2912303123    2.9399465971    0.7644212032
 C    3.3904425188    2.6160435049   -0.5021224328
 N    2.2217467375    2.0989255363   -0.9832076693
 H   -0.5956761446    2.0750297725   -0.9277630486
 H   -0.6448894861    1.8596746052    0.8112375839
 H    0.3145844964   -0.3059036604   -1.1679039328
 H    0.3966371032   -1.7844994286    0.8429540646
 H   -0.0668762446   -0.3814300815    1.9042878671
 H   -2.2192546751   -0.1010240215    0.6096416891
 H   -1.7667113165   -1.4991263810   -0.4635891683
 H    1.6320838987    2.7822655969    2.1186717332
 H    4.2671820161    2.7307217810   -1.1222909727
 H    2.0505634493    1.7875861525   -1.9247254969