16

 C   -0.1286815066    1.1151186243   -0.0936381903
 C    1.3683130128    1.4657301196   -0.1986845768
 C    1.5788281565    0.2415909504    0.7168589697
 O    0.1529507344   -0.0383641064    0.7326606860
 C    2.3739320000   -0.8797461528    0.1430943514
 N    2.6807143041   -1.1064604720   -1.0968142600
 C    3.3785830690   -2.3043094830   -1.0731610744
 C    3.4575332289   -2.7428698118    0.2053638794
 O    2.8202556285   -1.8357266525    0.9992771599
 H   -0.7527808888    1.8454030217    0.4348445733
 H   -0.6208681829    0.8336515978   -1.0310628673
 H    1.8032136537    1.3466507681   -1.1899864541
 H    1.6685865783    2.4213529237    0.2316402523
 H    1.9393975194    0.4551697510    1.7299841172
 H    3.7708435867   -2.7543018137   -1.9711537334
 H    3.8927005160   -3.5953288743    0.6976627770