15

 O   -0.0028325570    1.3435917101    0.0395177629
 N    0.0280448983   -0.0350623362   -0.0171780246
 C   -1.1145806551   -0.6116465310    0.0138588691
 C   -1.1020857441   -2.1253311705   -0.0374556289
 C   -2.2197613481   -2.6574831603   -0.8951914275
 C   -3.3172059362   -1.9268220546   -1.0865694148
 N   -3.4608957962   -0.6493013858   -0.5360208532
 C   -2.4524785511    0.0870379614    0.0615992961
 O   -2.6645878849    1.1795212915    0.5417031787
 H    0.9318687760    1.5678309494   -0.0372724496
 H   -0.1192434501   -2.4503370208   -0.3887959662
 H   -1.2064172204   -2.5236999441    0.9860898048
 H   -2.1396359182   -3.6459665358   -1.3283985187
 H   -4.1654685612   -2.2659780252   -1.6688105409
 H   -4.3529884818   -0.1794423082   -0.5758742770