17

 O    0.5648872042    0.4011047737   -0.6704025566
 C   -0.3563329456    0.5253852165    0.3973034699
 C   -1.5776775331   -0.3461732781    0.2111053697
 N   -2.4955276988   -0.5674066766    1.4705022520
 C   -3.0310572450   -1.5738702547    0.5371218044
 N   -4.1217612472   -1.2790763556   -0.0485434210
 C   -3.7055359599   -0.9153112470   -1.4327753430
 C   -2.2006380736   -0.6385707516   -1.2336049140
 C   -1.7266340173   -1.7177992009   -0.3200487757
 H    0.9420912858   -0.4841844053   -0.6355782806
 H    0.1104335330    0.2892492872    1.3675645101
 H   -0.6523479906    1.5782661432    0.4281738565
 H   -1.8341304559   -1.0047330134    2.1243905147
 H   -3.8683023894   -1.6816264991   -2.2058447592
 H   -4.2993736182   -0.0357565149   -1.7007917436
 H   -1.5731034604   -0.2824513819   -2.0456307519
 H   -1.0558325580   -2.5566810314   -0.4615332017