14

 O   -0.0011893492   -0.0428017945    0.0035825179
 C   -0.0066397356    1.1566089174    0.0024728462
 N   -1.0935593101    1.9870036702    0.1088635086
 C   -0.8090862886    3.3995369811   -0.0016814583
 C    0.7262346741    3.3857729648   -0.0058263735
 C    1.4283931679    2.7377831760    1.1376371637
 N    1.1916026747    1.9795803310   -0.1042082491
 C    1.3955045781    4.3786667865   -0.8075887906
 N    1.9050644216    5.2079294968   -1.4305576248
 H   -2.0238704949    1.6035692931    0.1362759986
 H   -1.1818854243    3.8314039243   -0.9378319752
 H   -1.2195942484    3.9789711041    0.8329589733
 H    2.4678307911    2.9828747205    1.3265016705
 H    0.8329368236    2.4867872087    2.0117322927