18

 C    0.0249536391    1.5517421892    0.0233526171
 C    1.4609240451    2.1776582548    0.1352034482
 N    2.3292562128    1.2143081786    0.8252994367
 C    2.5679544853    0.2472494350    0.0644593973
 O    2.7044911982   -1.0840311338    0.4430185477
 C    2.1126745602   -1.4575227164   -0.8343446338
 C    0.8183365614   -0.6704314257   -1.1151793420
 C   -0.0579328580   -0.0067828994   -0.0417507944
 C    2.1883960033   -0.0756157641   -1.3708066978
 H   -0.5594856193    1.8578940391    0.8968101946
 H   -0.4746871290    1.9871498241   -0.8497014107
 H    1.8342090025    2.4316552967   -0.8666051713
 H    1.4168671648    3.1075251956    0.7067130550
 H    2.3766940022   -2.4246603240   -1.2391687368
 H    0.3075610981   -1.0141747940   -2.0123385804
 H    0.2070954548   -0.4128385195    0.9371293834
 H   -1.1034981101   -0.2809404326   -0.2138129342
 H    2.5646761285    0.3432418865   -2.2927014586