23

 C   -1.9409419914    2.2673092727   -1.9776912988
 C   -1.1848569725    1.4677433158   -0.9091689508
 C   -1.9546078241    0.2578931776   -0.4174966652
 C   -1.9336805733   -1.1064441395   -1.1214811265
 C   -1.1316514485   -1.3897750275   -2.3736812107
 C   -1.2783908626   -0.9189846355    0.2105563759
 C    0.1779905024   -1.1103102335    0.6273918265
 C   -0.4376775969   -1.7662071812    1.8819416227
 O   -1.7809938054   -1.5390617896    1.4001297125
 H   -1.3693064795    3.1449662247   -2.2961172707
 H   -2.1400391931    1.6545269610   -2.8626867446
 H   -2.9060773557    2.6176664277   -1.5958242286
 H   -0.2098150353    1.1608206451   -1.3053931284
 H   -0.9664657554    2.1209926766   -0.0536509040
 H   -2.9164047501    0.4983927638    0.0324924812
 H   -2.8815606079   -1.6372968813   -1.0677416405
 H   -0.1644697486   -0.8786749773   -2.3683739371
 H   -0.9321841891   -2.4628712369   -2.4726205547
 H   -1.6677488824   -1.0697485387   -3.2739436854
 H    0.7676323586   -1.7751629365   -0.0074524711
 H    0.7409440035   -0.1921014906    0.8072042257
 H   -0.2274100629   -2.8342112587    2.0116123947
 H   -0.2523526697   -1.2465241883    2.8291274480