23

 C    0.0044314307    1.4767456475    0.0191103918
 C   -0.0061708525    0.0215940450    0.0326941497
 C   -0.0235145112   -1.1813851390    0.0433907975
 C   -0.0155725756   -2.6377667424    0.0579963377
 O   -1.3386055304   -3.1364758345    0.0021299304
 C   -1.3875773236   -4.5492650554    0.0143320132
 C   -2.8474376045   -4.9993258478   -0.0113818191
 C   -2.9283728266   -6.5256342769   -0.1357280783
 C   -3.6076588071   -4.4885157651    1.2186050821
 H    0.5536708049    1.8651263246   -0.8455981460
 H   -1.0152486111    1.8741704048   -0.0310107057
 H    0.4734836796    1.8822544722    0.9223143224
 H    0.5716868083   -3.0184308160   -0.7963961233
 H    0.4910565522   -3.0016271811    0.9693434681
 H   -0.8463202205   -4.9558493852   -0.8577715757
 H   -0.8858196544   -4.9421253470    0.9177538151
 H   -3.2993260047   -4.5515745080   -0.9065106986
 H   -2.4683483928   -7.0171189035    0.7300206128
 H   -3.9701865708   -6.8568021429   -0.1861954768
 H   -2.4183622139   -6.8865338296   -1.0353817627
 H   -4.6693622502   -4.7490454946    1.1596674572
 H   -3.2061833799   -4.9348358694    2.1369618144
 H   -3.5205076958   -3.4031961957    1.3046008438