18

 C   -0.1235449516    1.4037422752   -1.2867900074
 N    0.0772008257    0.1740080123   -0.5308206812
 C    1.2060030963   -0.6207394086   -0.9354411531
 C    1.9489420893   -1.1943343116    0.2767480328
 O    1.6951782239   -0.8711592435    1.4065836009
 C    0.8633509624   -1.7968738399   -1.8585855131
 O    1.7407595115   -2.4403585561   -2.3949123233
 C   -0.5914875718   -2.1803142549   -2.0442596776
 O   -0.7146998568   -3.2982996626   -2.8718314545
 H    0.7583715076    2.0669168852   -1.3026617168
 H   -0.3827726851    1.1717355801   -2.3257455782
 H   -0.9612910402    1.9576993372   -0.8555544564
 H    0.1565144884    0.3576407705    0.4647058263
 H    1.9871851541   -0.0508336127   -1.4757983980
 H    2.7404025965   -1.9245175687    0.0226588976
 H   -1.0246460079   -2.3530057110   -1.0456171980
 H   -1.1356523493   -1.3139047713   -2.4501266832
 H    0.1917896171   -3.5500572898   -3.1076753370