15

 O   -0.0041871329    1.4055200350   -0.0059802188
 C   -0.0105282292   -0.0062314886   -0.0480423231
 C   -1.4079926523   -0.5399463090    0.0455281386
 O   -2.3526192549   -0.1431563564   -1.0025526313
 C   -3.1149144153   -0.9721808370   -0.0850654067
 C   -1.9593684235   -2.0105962289    0.1651674819
 C   -2.1286251641   -1.8120174403    1.6677848964
 O   -2.0474405399   -2.4451388563    2.6757239477
 C   -2.4582643835   -0.3954174572    1.2164965602
 H   -0.6049230044    1.7111813716   -0.6958064478
 H    0.4559487423   -0.3939369165   -0.9672095187
 H    0.5761282539   -0.3618342608    0.8053155442
 H   -4.1656002303   -1.1664906401   -0.2874069869
 H   -1.6961945897   -2.8644886768   -0.4531303802
 H   -2.7268240560    0.5152944613    1.7434106545