20

 C   -0.1507509312    1.5620182498    0.0287259397
 C    0.0205752759    0.0417627533   -0.0150973243
 N    0.7284804171   -0.4190594546   -1.2084183933
 C   -0.0552663330   -0.6770200119   -2.4113334963
 C    0.8456548837   -0.7670637663   -3.6345054160
 O    1.8889718367   -1.6882001179   -3.3985000100
 C    2.7499499465   -1.2151062432   -2.3822553574
 C    2.0678246972   -0.6695808998   -1.1263346235
 O    2.7309313258   -0.4563109672   -0.1241725436
 H    0.8264865296    2.0507250041    0.0625256752
 H   -0.6949243305    1.9351659366   -0.8454748994
 H   -0.7124463463    1.8544044145    0.9215151135
 H    0.5978509713   -0.2918435829    0.8488479288
 H   -0.9556009330   -0.4574097265    0.0102786080
 H   -0.6239988393   -1.6117718962   -2.2995620984
 H   -0.7808879477    0.1344503480   -2.5489998831
 H    0.2792497431   -1.1305276402   -4.4959706163
 H    1.2529881591    0.2276244000   -3.8813118297
 H    3.3846735222   -2.0483411182   -2.0734127170
 H    3.4094736031   -0.4171131116   -2.7622183369