14

 C   -0.0193293163    1.5150215611    0.0219247306
 C    0.0069247797    0.0169346842    0.0114895009
 C   -0.0956600527   -0.7925291230   -1.0904311809
 N   -0.0274463742   -2.1104088487   -0.6639112687
 C    0.1172694522   -2.1312790467    0.6903620368
 O    0.2031226368   -3.3456130605    1.2940716399
 C    0.1441980875   -0.8397659893    1.1563479412
 H    0.9007144915    1.9358598591    0.4453554698
 H   -0.1278570733    1.9128834814   -0.9914868356
 H   -0.8518895852    1.9042359990    0.6205399554
 H   -0.2108155435   -0.5537668829   -2.1350199934
 H   -0.0739231185   -2.9320878583   -1.2397404858
 H    0.3011526945   -3.2024855093    2.2399270509
 H    0.2485642813   -0.5341059662    2.1866329891