23

 C   -0.1188481270    1.5855264328    0.0475751517
 C    0.0660854335    0.0748136706   -0.0167391350
 C    1.1719563775   -0.5294931862   -0.9596225135
 C    1.7582027696   -1.2883395566    0.2457634351
 C    2.1765143699   -0.3204299809    1.3166380213
 C    0.7169706249   -0.6635091890    1.1757464275
 C    0.1335614085   -1.7524073001    2.0531032101
 C    1.1538128795   -2.9270259860    1.9215089495
 C    1.8181267884   -2.7769551343    0.5181413674
 H    0.8206995212    2.0983124912    0.2794799609
 H   -0.4814927181    1.9788008775   -0.9089066361
 H   -0.8460380732    1.8602365546    0.8198954542
 H   -0.8968908427   -0.3955980862   -0.2438090013
 H    0.7605133228   -1.1849959710   -1.7313658957
 H    1.8444691423    0.1887450736   -1.4422261947
 H    2.6887616213   -0.7294689504    2.1806767229
 H    2.5325821861    0.6654822110    1.0313512555
 H   -0.0258831872   -1.4735546484    3.1008775057
 H   -0.8420668491   -2.0526774338    1.6506712263
 H    1.9152991756   -2.8479628786    2.7043833915
 H    0.6797854408   -3.9040507172    2.0527014522
 H    1.2253989401   -3.3039492104   -0.2399171300
 H    2.8227490052   -3.2146626420    0.4979998543