12

 C   -0.0374082068    1.3389932173    0.0520324453
 O    0.0120570112   -0.0972416770   -0.0151740844
 C    0.6161609787   -0.6067851717   -1.0712466843
 N    1.1667659126    0.0635530937   -2.0487532482
 O    1.6608697931   -0.9014399861   -2.9051660431
 N    1.4165876921   -2.1517939329   -2.4596045826
 C    0.7716245537   -2.0104780623   -1.3268889466
 C    0.3302002828   -3.1021094854   -0.5366412445
 N   -0.0451102502   -3.9652962926    0.1344449294
 H    0.9748406855    1.7517980248    0.0721690267
 H   -0.5763829295    1.7396939110   -0.8107516929
 H   -0.5651672231    1.5690481011    0.9761510950