19

 C   -0.1331817988    1.2992007118    0.6795216041
 C    0.1241058256   -0.0838000871    0.1205255447
 C    0.5911741423   -0.3386015009   -1.2821268658
 C    0.8541357450    0.7584870814   -2.2913150810
 C    1.5337555242   -0.6377117663   -0.1121172773
 C    2.7535283376    0.1853217287    0.1477953677
 N    3.8195208853   -0.5324728634    0.6244007933
 O    2.8456309526    1.3878084202   -0.0495500982
 H    0.6315751044    2.0112591012    0.3717329309
 H   -1.1130464663    1.6633223721    0.3508223363
 H   -0.1413975575    1.2726444494    1.7746744051
 H   -0.5563678559   -0.8368970628    0.5120179068
 H    0.1912781418   -1.2453257146   -1.7308670435
 H    1.3669317846    1.6088474612   -1.8437470070
 H    1.4823448869    0.3833495698   -3.1065128088
 H   -0.0891766958    1.1006906697   -2.7316655288
 H    1.6578618630   -1.6922095678    0.1171380600
 H    3.7312569128   -1.4860927253    0.9272199896
 H    4.6362999483   -0.0142932474    0.9043014218