16

 C   -0.5650017193    1.2653278597   -0.7205691170
 N   -0.3228759593   -0.1515903423   -0.5109557381
 C    0.7126008825   -0.7575668233   -0.8760580143
 O    0.8681697674   -2.1109126520   -0.5906706199
 C    0.1780535907   -2.6597447475    0.4594314168
 O    0.1991581205   -3.8342268035    0.6565814259
 C    1.9366161718   -0.3655300110   -1.6515993849
 C    1.8826185750   -0.1837565157   -3.1144518197
 O    2.0298017819    0.9262754419   -2.2307819202
 H    0.2265895712    1.7968192535   -1.2498210123
 H   -1.5058741188    1.3729515308   -1.2715801409
 H   -0.7250065215    1.7312310010    0.2580452131
 H   -0.3467523337   -1.9034589212    1.0564766079
 H    2.8606988734   -0.7516336333   -1.2228801355
 H    2.7585364696   -0.4276981137   -3.7114548520
 H    0.9230348485   -0.2515360033   -3.6225276689