22

 C    0.0900947648    1.4884041765    0.0220654932
 C   -0.0382001696   -0.0156176746    0.0101574146
 C   -0.6112604401   -0.7444365906    1.1776257329
 N    0.8375522589   -0.7816343581    0.9218923593
 C    1.2732728596   -1.9912535998    0.1971196738
 C    0.3621184881   -2.1660758649   -1.0379898184
 C   -0.1138574893   -0.7293712108   -1.3425070444
 C   -1.4772871093   -0.6577354544   -2.0166225957
 O   -1.3760418283   -1.3146327519   -3.2731662195
 H    0.9408615800    1.8124498189   -0.5883018279
 H   -0.8109155049    1.9676651293   -0.3777249295
 H    0.2460347926    1.8537512797    1.0402365800
 H   -0.8970853397   -0.1885342616    2.0667057375
 H   -1.1978538413   -1.6442292891    1.0087894651
 H    2.3122547237   -1.8248739487   -0.1086589904
 H    1.2631525499   -2.8577605832    0.8662271086
 H    0.8812372820   -2.6200785252   -1.8837598320
 H   -0.4948656630   -2.8106287502   -0.8154010796
 H    0.6070519788   -0.2434799940   -2.0139491150
 H   -2.2316080563   -1.1404283948   -1.3740240859
 H   -1.7797815320    0.3938392540   -2.1450569818
 H   -2.2369624348   -1.2829565264   -3.7002875050