20

 O   -0.1568501439    1.2825339963   -0.1944238905
 C    0.0170206226   -0.1146616729   -0.3986586370
 C   -1.2725974668   -0.7826148758    0.0623764456
 C   -1.2843835428   -2.2880948479   -0.0378687588
 N   -0.2925541836   -2.8165595295   -0.6545171871
 O   -0.3672738881   -4.2204000148   -0.7125754305
 C   -2.4061825114   -3.0639283916    0.5468670094
 C   -2.8509965218   -2.8369846851    1.9850139177
 C   -3.7487944463   -2.4315217375    0.8569733090
 H    0.6362018836    1.7280271543   -0.5052429733
 H    0.2053941900   -0.3504446108   -1.4542087637
 H    0.8670329398   -0.5062763367    0.1778015403
 H   -1.4644798458   -0.4766782300    1.0989231121
 H   -2.1050231372   -0.3726323426   -0.5240642562
 H    0.4198765151   -4.4383540915   -1.2214697365
 H   -2.4311096675   -4.0927809892    0.2152831463
 H   -3.0995897150   -3.7176411412    2.5661638666
 H   -2.3590553554   -2.0542611312    2.5513833155
 H   -3.8761141979   -1.3724613293    0.6662699071
 H   -4.6308517778   -3.0279227129    0.6526469041