17

 O   -0.6436441057    0.8143261613    0.5818581725
 C    0.2618896928    0.9231242068   -0.1989238751
 C    1.4238417317    1.8869376895   -0.0154730001
 C    1.5377426010    2.6994683748    1.2813705473
 C    2.4610708395    3.8567895899    0.7874858227
 C    2.6819684210    3.4416536800   -0.6838854120
 C    3.5549610045    2.1751532493   -0.7362296675
 O    2.6444563481    1.1763079356   -0.2348554644
 O    1.4035846710    2.8729353997   -1.0356214307
 H    0.3325130069    0.3234144842   -1.1293363024
 H    0.5566939403    3.0507339695    1.6044434233
 H    1.9764497494    2.1018580032    2.0813356618
 H    1.9558594697    4.8232284817    0.8387436112
 H    3.3974620872    3.9301081418    1.3456040146
 H    2.9476800787    4.2316321680   -1.3844803894
 H    3.8568195040    1.9174542456   -1.7571443530
 H    4.4410614700    2.2313612190   -0.0956366488