19

 C    0.8838659053    1.4980002348   -0.0293143038
 C    0.1465462123    0.1612287360   -0.0144924495
 C    0.7390457700   -0.9370688590   -0.9653747558
 O    1.5333244469   -0.5658892061   -2.0513721859
 C    1.3983947804   -1.6470482928    0.2604245712
 C    2.8555516052   -1.3807315567    0.4984008372
 O    3.5502845323   -0.6206309525   -0.1402149015
 C    0.4659570563   -0.7629260328    1.1898793184
 O    1.0505542523   -0.1072135765    2.2893654301
 H    1.9580549823    1.3845369460    0.1301599334
 H    0.7358589871    1.9860410507   -0.9966956762
 H    0.4996814840    2.1549325214    0.7552496132
 H   -0.9238713014    0.3378503861   -0.1560502167
 H   -0.0632097466   -1.5638157256   -1.3673822388
 H    2.3835808478   -0.2729372613   -1.6922698467
 H    1.2369785315   -2.7269469270    0.3540599024
 H    3.2973912396   -1.9457671753    1.3476134229
 H   -0.4089666740   -1.3469835971    1.4991531167
 H    1.0449396187   -0.7001449423    3.0468454392