18

 O    0.1028800225    1.4110385653    0.2426447144
 C   -0.0095688194    0.0278141667    0.1321385130
 C   -0.5795335509   -0.8336644270    1.2322196580
 C   -1.3271139005   -0.6759477435   -0.0838429285
 C   -2.6423151269    0.0644975838   -0.1547699480
 C   -3.8872194889   -0.7503394998    0.3000895876
 N   -4.5012602843    0.0383635841    1.3830176442
 C   -3.7554151288    1.0438173796    1.5471199934
 O   -2.6527723436    1.2041755315    0.7651906614
 H   -0.7143200787    1.7476650969    0.6300513972
 H    0.8461121635   -0.3619444545   -0.4102139017
 H   -0.1179742581   -1.7873667106    1.4641208349
 H   -0.9853067020   -0.3101666142    2.0917312195
 H   -1.3137048139   -1.5275475079   -0.7605528473
 H   -2.7799245509    0.4851994853   -1.1566907723
 H   -4.6096999005   -0.8957959472   -0.5082730800
 H   -3.6087267480   -1.7386987996    0.6810753859
 H   -3.9027764806    1.8333658310    2.2755126582