16

 C    0.0532523173    1.4850159162   -0.0515594780
 C    0.0005722164   -0.0101213087    0.0372475194
 C   -1.3137774942   -0.8028102711   -0.1390458281
 C   -0.6913637893   -2.0981713216    0.4055872952
 O   -0.3966795234   -1.7192640825    1.7856996524
 C    0.6268008490   -0.9004046367    1.2227709759
 C    0.8317602541   -1.7992359641    0.0071396447
 O    0.8657679692   -0.7185082547   -0.9177537459
 H    1.0760705647    1.8483162528    0.0839104691
 H   -0.3055041435    1.8301606978   -1.0268900553
 H   -0.5801217764    1.9296254714    0.7224596385
 H   -2.1423215759   -0.4754666747    0.4920039844
 H   -1.6063546055   -0.8330652761   -1.1904852181
 H   -1.1950670730   -3.0573566832    0.3070237417
 H    1.3648178723   -0.4941078912    1.9125502754
 H    1.5568479681   -2.5961682437   -0.1440500313