16

 C   -0.0159356805    1.5205287337    0.1126032406
 C   -0.0075673091    0.0365553521   -0.0509324235
 C    0.0166829699   -0.7583863858   -1.1824676158
 C    0.0442502018   -0.8625107623   -2.6327780534
 C    0.0552145538   -2.1649544258   -2.9712024359
 C    0.0350222551   -3.0419017505   -1.7334556729
 N    0.0119454197   -2.0265138979   -0.6920458828
 N   -0.0133474728   -2.0580891311    0.6422399498
 N   -0.0244416891   -0.8036467905    1.0306270976
 H    0.8765835326    1.9851843608   -0.3208102689
 H   -0.8888549170    1.9799716896   -0.3640340696
 H   -0.0425328937    1.7612280079    1.1774349100
 H    0.0539856120   -0.0217685654   -3.3113391806
 H    0.0753935400   -2.5761229262   -3.9707287036
 H   -0.8504624754   -3.6852612799   -1.6787041294
 H    0.9222540427   -3.6791346988   -1.6454255416