26

 C   -0.2898134889    1.4736685492   -0.0074444855
 C   -0.0736787362   -0.0380939247   -0.1308554304
 C    0.8759704126   -0.4715922525   -1.2653119524
 C    2.3088422820    0.0323089790   -1.0340788359
 C    0.8226070164   -2.0011289491   -1.4362132723
 C    1.5686388814   -2.5396415439   -2.6585453854
 N    1.3843152355   -3.9832735731   -2.7798436024
 C    0.2260369599   -4.4230505747   -3.5499317153
 C    1.6027467656   -4.5535950548   -4.1028066405
 H    0.6310829939    2.0037716270    0.2537260004
 H   -0.6612755196    1.8975631117   -0.9475872313
 H   -1.0264537008    1.6993082192    0.7702072264
 H    0.3053993976   -0.4341575934    0.8215927999
 H   -1.0466726482   -0.5200837746   -0.2906433492
 H    0.5038218212   -0.0176068178   -2.1971152752
 H    2.9698248425   -0.2203432658   -1.8681448755
 H    2.3398872173    1.1193191938   -0.9182304152
 H    2.7343395430   -0.4124486931   -0.1260302695
 H    1.2198696778   -2.4906508530   -0.5376262378
 H   -0.2272907062   -2.3119604077   -1.5145745662
 H    1.2277472257   -2.0061509733   -3.5672793744
 H    2.6449713676   -2.3565094437   -2.5677177234
 H   -0.3018958000   -5.2910578531   -3.1653057346
 H   -0.4134730492   -3.6590175457   -3.9910505792
 H    1.8772030873   -3.8772766187   -4.9114989172
 H    2.1013782920   -5.5185366172   -4.1284272180