19

 C   -0.0753691058    1.5433808500   -0.0080570034
 C    0.0850998037    0.0410779821    0.0142046793
 C    1.4110387643   -0.6804963206   -0.2288871465
 N    2.6333430206    0.0659050618   -0.0654106521
 C    2.6381273426    0.4426657565    1.1576206834
 N    3.5421445260    1.2764142712    1.7618478980
 O    1.6170944338    0.0445604884    1.9695592757
 C    0.7412479416   -0.7264806534    1.1365809567
 C    0.1279745323   -1.8892987399    1.8576129796
 H    0.8319642590    2.0584410307    0.3127867326
 H   -0.3061378141    1.8868055675   -1.0217314686
 H   -0.8918697994    1.8605689821    0.6495516439
 H   -0.7605410895   -0.5037907046   -0.4013299706
 H    1.4450617744   -1.5179729024   -0.9174216013
 H    4.4073763548    1.3654038646    1.2510421898
 H    3.6551429164    1.1319379085    2.7541924023
 H   -0.5343574970   -1.5547577472    2.6637633225
 H   -0.4660816976   -2.4875416266    1.1613700379
 H    0.8994257837   -2.5328514488    2.2930273507