16

 N   -0.0082404759   -1.1713885258    0.0095282080
 C   -0.0046779737   -0.0139119534    0.0066231837
 C   -0.0024175720    1.4249834943    0.0107974067
 C   -0.4625550809    2.1985266532   -1.2711790619
 C    0.8742908274    3.0012605545   -1.2759109102
 C    1.3428119483    2.2549262839    0.0044008729
 C    0.9201068832    2.8629656319    1.3614822445
 O   -0.3519824923    3.5033642405    1.1828851864
 C   -0.3353005880    2.0960151120    1.3837285678
 H   -0.5897017705    1.5400721185   -2.1313207261
 H   -1.3666405091    2.7898919971   -1.1262595335
 H    1.5027405365    2.7916541746   -2.1432653863
 H    0.7680360930    4.0805595413   -1.1619295442
 H    2.3020327808    1.7398910025    0.0030897348
 H    1.5462064026    3.2339631029    2.1641361884
 H   -0.9343932392    1.6866358719    2.1887197089