14

 C    0.1061593207    1.4994898210   -0.1552707250
 C   -0.1571472731    0.0333429783    0.0440012933
 O   -0.6095163612   -0.4910350018    1.0234369533
 O    0.2034685657   -0.6660401990   -1.0828134700
 C    0.0621330857   -2.0864002470   -1.0147304806
 C   -0.8487462375   -2.5276444266   -2.1721368745
 O   -0.7434604448   -3.5665231637   -2.7536566787
 C    1.3756537364   -2.7298271247   -1.0430032191
 N    2.4147333781   -3.2318279907   -1.0600087647
 H    1.1841756724    1.6651178733   -0.2425338378
 H   -0.3526671983    1.8446181470   -1.0850955772
 H   -0.2859294923    2.0567652797    0.6940445833
 H   -0.4478681499   -2.3396655478   -0.0732362065
 H   -1.6354893318   -1.7756661380   -2.3921935559