16

 C    0.0197149603    1.5800087160    0.0013924676
 C    0.0300676737    0.0390777094   -0.0138894572
 C    0.6589133195   -0.4710520203   -1.2275611839
 C    1.1986810902   -0.8700334158   -2.2236957070
 C    0.7592372268   -0.5330568030    1.2549953775
 C    0.0263008891   -0.0884915081    2.5316113463
 O    0.4394054864    0.7632706571    3.2668057856
 C    0.8099543926   -1.9937203003    1.2350108951
 N    0.8142026256   -3.1487934166    1.2685071376
 H    1.0404579421    1.9719867432   -0.0115320189
 H   -0.4990404259    1.9519855641   -0.8846055067
 H   -0.4861617731    1.9671758109    0.8892640974
 H   -1.0061482748   -0.3232805729    0.0184883551
 H    1.6634357502   -1.2382231299   -3.1051883930
 H    1.7748704323   -0.1278898603    1.2937798449
 H   -0.9386525651   -0.6105071836    2.7073384997