20

 C   -0.0195949868    1.5547321729   -0.0508427973
 C    0.0174733214    0.0259257905   -0.1013077573
 C   -1.3738878970   -0.5962611567   -0.0410357028
 O   -2.0991185945   -0.1697492740   -1.1902253667
 C   -3.3781784726   -0.7626542835   -1.2462004866
 C   -3.2147816719   -2.2572169177   -1.4300736826
 O   -2.4019713035   -2.8242962737   -0.3932777967
 C   -1.3402598119   -2.1178793216    0.0936247876
 N   -0.4145005633   -2.6894699634    0.7387535637
 H    0.9909172288    1.9680707209   -0.1192136909
 H   -0.6116731600    1.9615413740   -0.8746827712
 H   -0.4606764561    1.9095845454    0.8876964555
 H    0.5006591219   -0.3139587024   -1.0242959849
 H    0.5989641512   -0.3840608225    0.7269652544
 H   -1.8995798121   -0.2256720991    0.8595320296
 H   -3.9520581104   -0.5455664468   -0.3300914432
 H   -3.9067935108   -0.3270966976   -2.0994041921
 H   -4.1727659025   -2.7829844680   -1.3851116153
 H   -2.7432635683   -2.4611469397   -2.3998338488
 H   -0.5858944118   -3.6965769469    0.7795680057