21

 C    0.3183847782    1.3985633464   -0.2824321466
 C    0.0486075153   -0.0768237458    0.0100170902
 C    0.6396365596   -0.5264028288    1.3486947060
 O    0.0525484082    0.1619084621    2.4353842771
 O   -1.3574367027   -0.3367688094    0.1314361469
 C   -2.0525639486   -0.5027593937   -1.0723841646
 C   -2.0307102681   -1.9048220374   -1.7336254940
 O   -3.4684130811   -1.9935030239   -1.6554837028
 C   -3.5504509521   -0.7831169276   -0.8750570094
 H    1.3892101238    1.5638884684   -0.4391017841
 H   -0.2046606690    1.7360681965   -1.1815179298
 H   -0.0058158103    2.0058921892    0.5657454185
 H    0.4710845071   -0.7083468591   -0.7869244679
 H    0.5072192426   -1.6149378999    1.4452972787
 H    1.7128416122   -0.3110526489    1.3755923980
 H   -0.8997951539    0.0415448269    2.3396611396
 H   -1.8410283700    0.3129794506   -1.7737913435
 H   -1.6719630470   -1.9738170903   -2.7668611056
 H   -1.5314424247   -2.6635561454   -1.1161127929
 H   -3.8052126675   -0.9771418080    0.1747226068
 H   -4.2580172720   -0.0629586621   -1.2997831007