23

 C   -0.0899806055    1.6019487095    0.0362539461
 C    0.0133022296    0.0755292578   -0.0257572040
 C    0.7075427381   -0.5183010042    1.2025879217
 C    0.8181549777   -2.0599781204    1.1911944269
 C    1.5722897869   -2.5402298102    0.0327013112
 C    2.2522246474   -2.9300485195   -0.8812805817
 C    1.4850723977   -2.5843850159    2.4979355496
 C    1.3798298341   -4.1017629250    2.6497754976
 O    2.8288236415   -2.1391454438    2.5958449972
 H    0.9019907244    2.0624040004    0.1016798943
 H   -0.5857354090    2.0037051085   -0.8528947736
 H   -0.6623226555    1.9275903695    0.9121854683
 H   -0.9921642929   -0.3566892590   -0.1207963520
 H    0.5592728743   -0.2218109070   -0.9284390280
 H    1.7155453113   -0.1034341933    1.3088548286
 H    0.1559870173   -0.2327733157    2.1079457387
 H   -0.1963286446   -2.4807963399    1.1444646815
 H    2.8195069844   -3.2756134603   -1.7101652339
 H    0.9678306550   -2.1025816524    3.3359530064
 H    1.8560724157   -4.6104758280    1.8049564236
 H    1.8792994829   -4.4163917586    3.5697166419
 H    0.3339071651   -4.4241274238    2.6934238026
 H    3.2929689439   -2.4752572286    1.8182289069