22

 C   -0.0469474259    1.5765090464   -0.1449609584
 C   -0.0757757035    0.0895076534    0.0996992146
 O    1.1523233101   -0.6312121976   -0.0502658388
 C    0.5427950639   -0.5971707221    1.2489079156
 C    1.3011715764    0.0944274337    2.3328873291
 N    0.7939271134   -0.1113342321    3.7066245137
 C    2.1328443051   -0.6175266078    3.3516728278
 C    2.2761340821   -2.1262527943    3.3545267028
 C    3.3406760147    0.1215912052    3.8950553413
 H    0.8285999036    2.0484277560    0.3052800277
 H   -0.0199713251    1.7792042313   -1.2207451445
 H   -0.9483806153    2.0474525078    0.2619462303
 H   -0.9311750161   -0.4178319306   -0.3530823370
 H    0.0896598447   -1.5391962803    1.5562289497
 H    1.6517610822    1.0901644471    2.0718810270
 H    0.8639548343    0.7532509034    4.2378531011
 H    1.3511036728   -2.6198682647    3.0534839712
 H    3.0767536859   -2.4428254180    2.6774301919
 H    2.5270709962   -2.4790929282    4.3612812250
 H    3.5202467703   -0.1475513706    4.9427742589
 H    4.2445998572   -0.1311445217    3.3301528750
 H    3.2042663429    1.2067910436    3.8413185260