18

 O   -0.3697967833    0.7513897660   -0.8570700923
 C    0.2471998568    0.9938310382    0.1497366379
 C    1.4745420381    1.8329930554    0.1912604191
 C    1.6212200874    2.8038397594    1.3165878441
 N    2.3737926114    1.5030799191    1.3300322357
 C    3.6465359473    2.2807597106    1.0801679264
 C    2.8831672285    3.6108778622    1.1361916560
 C    3.0904675083    4.8945672375    0.3890924595
 C    3.2710682921    4.8449259482    1.8904194223
 H   -0.0651313921    0.6038957292    1.1438226795
 H    1.9008020158    2.0798412460   -0.7782659568
 H    0.8152676844    3.0111181964    2.0153091398
 H    4.3357536318    2.1279335557    1.9140551624
 H    4.1427211375    2.0146847754    0.1411353874
 H    3.9783095134    4.9825784302   -0.2286704786
 H    2.2183869187    5.4046269888   -0.0068364654
 H    2.5187238273    5.3217733282    2.5106189196
 H    4.2784437766    4.9007374436    2.2908024736