21

 C    0.0701212427    1.3241996290   -0.1545408498
 O   -0.0327147236   -0.0838987009   -0.0264406074
 C   -1.3277416542   -0.6109361772    0.0840210058
 C   -2.0587850732   -0.1184436980    1.3374594691
 O   -2.0694101415   -0.2388038404   -1.0905386661
 C   -2.9099371322   -1.3097947421   -1.5035746110
 C   -2.2449359793   -2.5778524124   -1.0019539038
 C   -0.7694586329   -2.7024546806   -1.2750847131
 C   -1.2437460047   -2.1296429525    0.0325871965
 H    1.1187375237    1.5347200111   -0.3778287883
 H   -0.5544978255    1.6987300614   -0.9723534866
 H   -0.1981015976    1.8496032776    0.7722947883
 H   -2.2662645701    0.9519563925    1.2726641480
 H   -3.0147784289   -0.6395796140    1.4419940703
 H   -1.4585141556   -0.3119985038    2.2313697735
 H   -3.9179324998   -1.2099890558   -1.0705943820
 H   -3.0027098064   -1.2536588410   -2.5942937041
 H   -2.8500277966   -3.4663691495   -0.8656681492
 H   -0.3404944513   -3.6977347433   -1.2536206517
 H   -0.3118332278   -2.0198485085   -1.9826451900
 H   -1.0835577550   -2.6646612815    0.9602758116