18

 C   -0.1962783525    1.5545363610    0.0752616405
 C    0.0038116454    0.0655886104    0.0548863851
 C   -1.2085516088   -0.8971264072    0.0184668335
 C   -0.5609540590   -1.7730084517    1.1327857750
 C    0.6614454720   -0.8065064931    1.2029769420
 C    1.7471314045   -1.0902168556    0.1424403934
 O    1.0332284417   -0.3556241688   -0.8698148747
 C    1.0695874042   -0.3015694845    2.4877097473
 N    1.3876760756    0.1176204662    3.5185258841
 H    0.7460929056    2.0732774183    0.2713690005
 H   -0.5743433862    1.8863353226   -0.8983151963
 H   -0.9221407902    1.8418200208    0.8417095868
 H   -2.1483924726   -0.4322621021    0.3258062271
 H   -1.3447556582   -1.3740503907   -0.9535356072
 H   -1.1339721127   -1.7935703463    2.0604351458
 H   -0.3015696574   -2.7980473404    0.8594013952
 H    2.7188515438   -0.6345918400    0.3639033571
 H    1.8883139548   -2.1456335289   -0.1185479154