18

 C    0.0615057372    1.5544186433    0.0222507203
 C   -0.0076895767    0.0259386449    0.0209061172
 C   -1.4380998434   -0.5168722143   -0.0084111913
 C   -1.4718101300   -2.0439031567   -0.1174172362
 O   -2.0735290332   -0.0613840606    1.1822800604
 C   -3.4797331365   -0.0739108547    1.1481074413
 H    1.0971489076    1.9032720897    0.0782272407
 H   -0.3811107789    1.9712630707   -0.8897972134
 H   -0.4853777636    1.9602918179    0.8766274957
 H    0.5325367677   -0.3776192841   -0.8438913610
 H    0.4874972597   -0.3722336496    0.9155417204
 H   -1.9641530948   -0.0837403002   -0.8782618093
 H   -2.4962723414   -2.4267971736   -0.1314689671
 H   -0.9835297035   -2.3735908086   -1.0400731649
 H   -0.9494395293   -2.4957712180    0.7319186462
 H   -3.8290378963    0.3812739840    2.0787805051
 H   -3.8719374190    0.5109735535    0.3007441943
 H   -3.8971414454   -1.0897640835    1.0837037315