16

 C   -0.6551734288    1.3889874724    0.2774192452
 C   -0.0064174241    0.0536614334   -0.0118162163
 N    0.1901936647   -0.7353883282    1.0901340401
 N    0.3465534523   -0.4368571888   -1.1486513414
 C    0.1125701253    0.1814678590   -2.3491906125
 N    0.7002127294   -0.2973013031   -3.4488696353
 N    0.2287813811    0.5306427699   -4.4118892634
 C   -0.6053279817    1.4452108293   -3.8861373998
 N   -0.7107612626    1.2653754836   -2.5872973350
 H   -0.1348984276    2.1881429878   -0.2518118791
 H   -1.6814539067    1.3958557147   -0.0962822405
 H   -0.6651412328    1.6016681334    1.3501124484
 H    0.2327755141   -0.3126833324    2.0010251316
 H    0.7411374894   -1.5672506109    0.9432468109
 H    0.5114178477    0.3952611952   -5.3678237945
 H   -1.1036307298    2.2023069347   -4.4740054184