15

 O   -0.4154571529    1.4101120205   -0.1078171002
 N   -0.0875556455    0.0447539069   -0.0926180666
 C   -1.1262633978   -0.6571633199    0.0758615827
 C   -1.3377168141   -2.1213765293    0.0564501877
 C   -2.2596810513   -2.5151486125    1.1512925729
 N   -2.8614141064   -1.9165986622   -0.0519123064
 C   -2.6228397514   -0.4030841958    0.0521837325
 C   -3.3224087433    0.2776689389    1.2113755152
 O   -2.9224757958    0.2511383001    2.3482593098
 H    0.4429850642    1.8280752971   -0.2362301677
 H   -0.8037301782   -2.8375599499   -0.5564625311
 H   -2.4828813872   -3.5747225530    1.2309947979
 H   -2.2611723714   -1.9645620414    2.0861328770
 H   -2.9316932722    0.0561986471   -0.8917307641
 H   -4.2726482266    0.7907465133    0.9501771304