21

 C   -0.1995632927    1.5649077209    0.0105003641
 C    0.0115574459    0.0577836390    0.0221432605
 C    1.2393344986   -0.5820409336   -0.6795189840
 C    2.1823920459   -0.1545082551    0.5104652389
 C    3.1830298636   -1.2796987478    0.7107827897
 C    2.4707522431   -2.3950143126    0.5219768031
 C    2.8556128587   -3.8338125266    0.5747110097
 C    1.0725678044   -1.8640620175    0.2169603340
 C    0.8222844783   -0.6263006087    1.1552364748
 H    0.7157398299    2.1208149112    0.2322555408
 H   -0.5603791269    1.8991331018   -0.9688515999
 H   -0.9519574907    1.8575650931    0.7516323427
 H   -0.9318630965   -0.4546094987   -0.2046644755
 H    1.4927644640   -0.5673393001   -1.7441893816
 H    2.5111498571    0.8789682003    0.6101217596
 H    4.2320481701   -1.1723332430    0.9518419253
 H    3.9160215206   -3.9555450957    0.8132772583
 H    2.2739398071   -4.3780769325    1.3302885206
 H    2.6640504476   -4.3364966015   -0.3824131878
 H    0.2552509169   -2.5596253815    0.0144023528
 H    0.5907043350   -0.6630759314    2.2243404541