16

 C   -0.0216617039    1.5395346480   -0.0016260869
 C   -0.0079341772    0.0447419444    0.0064595505
 C   -0.0274673911   -0.7862426379   -1.0593409405
 C   -0.0034128569   -2.2561807410   -0.6509729904
 C    0.0325756533   -2.0994124660    0.8333149589
 C    0.0302679217   -0.7927364645    1.2154960560
 C    0.0668341082   -0.8791211337    2.6295029163
 N    0.0887425797   -2.1316284695    3.0405026629
 O    0.0662629758   -2.9265615350    1.8704996268
 H    0.8679320915    1.9461720361    0.4943558122
 H   -0.0518368868    1.9306003101   -1.0216242674
 H   -0.8913423034    1.9302509670    0.5403204220
 H   -0.0566688584   -0.4760080881   -2.0960688596
 H   -0.8881195428   -2.8029228535   -1.0002562920
 H    0.8725297971   -2.7865836528   -1.0447326687
 H    0.0788161833   -0.1024231436    3.3814334299