21

 C   -0.0133343486    1.4626757176   -0.1463556976
 C   -0.0229119204   -0.0546644971   -0.0741455482
 O   -1.3630392830   -0.4950132726    0.0288466674
 C   -1.4939172699   -1.9020537251    0.1003579107
 C   -2.9766975347   -2.2267766062    0.1498247490
 N   -3.6386627291   -1.7135752287   -1.0344062631
 C   -4.8044982633   -2.2839739280   -1.4875799934
 N   -5.4338052234   -1.5543057191   -2.4937095959
 O   -5.2625175564   -3.3225120115   -1.0466863684
 H    1.0129446146    1.8340953040   -0.2208520621
 H   -0.5712561966    1.8106833587   -1.0206267623
 H   -0.4743640883    1.8922416426    0.7474816244
 H    0.4510365173   -0.4900115455   -0.9699914980
 H    0.5560612219   -0.4042177893    0.7969262740
 H   -1.0301901415   -2.3746139757   -0.7808174127
 H   -0.9917408059   -2.2943116525    0.9995882967
 H   -3.1350647707   -3.3065061161    0.1796253889
 H   -3.4072156485   -1.8035845810    1.0689519670
 H   -3.4587910709   -0.7424045465   -1.2365464797
 H   -4.8450250667   -1.0186039539   -3.1144115432
 H   -6.1367347457   -2.0980263340   -2.9714932236