21

 C    0.0319199134    1.6148926774    0.0179847896
 C    0.0868269382    0.0896391657   -0.0251717266
 C    0.9798199540   -0.4923818744   -1.1367075822
 O    1.2988398085   -1.8194406761   -0.7251551255
 C    1.4215873390   -1.8355939672    0.6888636888
 C    1.0834384019   -3.2175519207    1.1998390655
 C    2.6981262865   -1.1422661251    1.2304165095
 O    1.9474227363    0.0262620685    1.6285729431
 C    0.6933567557   -0.5675617513    1.2157614601
 H    1.0189426100    2.0219097348    0.2528743481
 H   -0.2939769478    2.0254027706   -0.9433950250
 H   -0.6682469268    1.9650424095    0.7829119149
 H   -0.9238440017   -0.3219848532   -0.1459295041
 H    0.4868966157   -0.5554419202   -2.1103143281
 H    1.8909909910    0.1152696827   -1.2506689799
 H    1.7707657992   -3.9572042864    0.7766936822
 H    1.1593834651   -3.2607213095    2.2899402054
 H    0.0668771198   -3.4948829689    0.9059434595
 H    3.1699777258   -1.6335435573    2.0903310787
 H    3.4590388088   -0.9174605740    0.4739857026
 H   -0.0009851527   -0.6675957249    2.0567422234