20

 C   -0.0762986632    1.4363654868   -0.0269248292
 O   -0.0404816631    0.0270094011    0.1339092771
 C   -1.2691201324   -0.5918741144   -0.0052703419
 O   -1.7277991359   -0.5016015175   -1.3792330352
 C   -1.5954096239   -1.7583129498   -1.8818805173
 N   -1.2871336497   -2.7128653654   -1.1129103521
 C   -1.1726963817   -2.1300487123    0.2472674178
 C    0.1476932841   -2.5627566084    0.8873114318
 C   -2.3715044781   -2.6091727956    1.0787224350
 H    0.9309841325    1.8039692704    0.1775260969
 H   -0.3670666286    1.7151462354   -1.0459170293
 H   -0.7794062749    1.8975780718    0.6821348301
 H   -2.0315655752   -0.0859364907    0.6025424353
 H   -1.7849191857   -1.8371501607   -2.9470340879
 H    0.9973795326   -2.2499209681    0.2792916420
 H    0.2612328770   -2.1287060671    1.8846928191
 H    0.1608585938   -3.6523570552    0.9744075884
 H   -2.3859155849   -3.7012968485    1.1162718560
 H   -2.3118752511   -2.2250955305    2.1027814613
 H   -3.3156129616   -2.2736862915    0.6376643022