17

 C    0.0170193849    1.3848526719   -0.0110728370
 O    0.0096109170   -0.0218234444    0.0156326371
 C    0.6282490746   -0.5915101365   -1.1149307655
 C    0.5636846021   -2.0762868463   -1.0042703872
 C    0.0110968061   -2.8361238962   -0.0376803192
 O    0.2087403552   -4.1650997209   -0.3891345209
 C    0.8773932596   -4.0960180151   -1.5577235937
 N    1.1536649427   -5.2866858153   -2.1821233259
 N    1.1280661679   -2.8962220822   -1.9841036043
 H    1.0421121205    1.7877975230   -0.0323888946
 H   -0.5240360912    1.7798918739   -0.8855660684
 H   -0.4799244174    1.7315674532    0.8980331451
 H    0.1311266501   -0.2632126962   -2.0446203953
 H    1.6807558855   -0.2675051093   -1.1956026352
 H   -0.5085156551   -2.6498722653    0.8830264998
 H    1.2886049431   -6.0685074654   -1.5579572646
 H    1.8736592544   -5.2025140388   -2.8841350803