16

 C   -0.2489447249    1.5142095726   -0.0667943688
 N    0.0620950024    0.0939060103   -0.0722143013
 C    0.7052183985   -0.4968984576   -1.2448027694
 C    2.1445165516   -0.0923322192   -1.4176322509
 C    1.7847378548   -1.1368266678   -0.3915505971
 C    1.1261192671   -0.4632428291    0.8241305666
 C    1.9526941824    0.4959352690    1.5610160433
 N    2.5895995305    1.2722292361    2.1345898573
 H    0.6084397306    2.1718482358   -0.2778536226
 H   -1.0181335069    1.6974787731   -0.8235007769
 H   -0.6602135524    1.7940108491    0.9075447691
 H    0.1024216224   -0.9187037199   -2.0411298479
 H    2.6297130034   -0.4853474663   -2.3054655065
 H    2.4998197033    0.8859641454   -1.1070676118
 H    2.1676783429   -2.1472638956   -0.3955597180
 H    0.6938676943   -1.1708667759    1.5398226249