18

 C   -0.0088876111    1.3863196031    0.1135805137
 O   -0.0513713228   -0.0094836249   -0.0598096248
 C    0.7986775355   -0.4615425960   -1.0945036053
 C    0.7154599233   -1.9737106047   -1.1249549159
 C   -0.5055184055   -2.7454043148   -1.7002220302
 C   -0.0853736618   -2.3915847203   -3.1467542822
 C    1.1619493750   -2.8321256383   -2.3419784186
 O    0.3607069491   -3.9483209063   -1.7882464699
 H    1.0024134808    1.7352605353    0.3771435694
 H   -0.3286044947    1.9224537032   -0.7945065692
 H   -0.6920319648    1.6359685207    0.9290161279
 H    0.5087192828   -0.0033381525   -2.0530542767
 H    1.8409325491   -0.1538835729   -0.8974068728
 H    1.0498035121   -2.4012713793   -0.1769913903
 H   -1.5009169210   -2.8726777163   -1.2759911273
 H   -0.4119561271   -3.1087298678   -3.9002559952
 H   -0.1648190784   -1.3581056585   -3.4886806942
 H    2.1686466697   -3.0639207597   -2.6921825085