19

 C    0.0651173721    1.5099338055    0.0465942559
 C   -0.0106172683   -0.0069546164    0.0333468177
 O    0.7179867783   -0.5020842950    1.1412205851
 C    0.7205062953   -1.9020421924    1.2257676573
 C    1.4613844218   -2.2946370999    2.5256276840
 C    0.7461593561   -1.8322290630    3.7189108202
 C    0.1552323967   -1.4602949645    4.6954039260
 C    1.6906721137   -3.7419603007    2.5590717318
 C    1.8723001885   -4.9288428409    2.5526541760
 H    1.1042716638    1.8430113524   -0.0255854987
 H   -0.4930648704    1.9259031599   -0.7973543487
 H   -0.3581686127    1.9055362124    0.9739630675
 H   -1.0586498910   -0.3449146593    0.0905149738
 H    0.4072311800   -0.4089370044   -0.9051284943
 H   -0.3021207647   -2.3083867740    1.2504949397
 H    1.2455308767   -2.3552418539    0.3700595519
 H    2.4345282764   -1.7848922948    2.4872919227
 H   -0.3633725644   -1.1284401513    5.5604898735
 H    2.0365786522   -5.9779544696    2.5630545186