19

 C    0.0277101725   -1.1898019002   -0.0084707483
 C    0.0302216879    0.0136880764    0.0116694900
 C    0.0191389224    1.4453403125    0.0490398078
 C    0.3608072599    2.2177981488   -1.2193998330
 C    1.3084802263    2.2718156205   -0.0572343228
 C    1.2294324101    3.4199253741    0.9521841681
 C   -0.1243060874    3.3098196061    1.6617575140
 C   -1.3988649936    3.5038628006    0.8783124180
 C   -0.8633928717    2.1115503082    1.1024912070
 H    0.0292098013   -2.2509446115   -0.0311400896
 H    0.6625339059    1.6197975263   -2.0720205023
 H   -0.2314646711    3.0867131090   -1.4796903026
 H    2.2586052324    1.7619407371   -0.1701844084
 H    2.0308245676    3.3014250406    1.6886934938
 H    1.3782809559    4.3980162007    0.4790307502
 H   -0.1491676532    3.5342310110    2.7226389038
 H   -2.2835453331    3.7807724123    1.4425614422
 H   -1.3634742625    3.9508671808   -0.1085311293
 H   -1.4235901196    1.4384938165    1.7393425615