19

 C    0.0360134157   -2.8738266483    1.2775518905
 C   -0.3177934884   -1.3883426678    1.4223432741
 C   -1.4622969238   -0.9973929827    0.5088149969
 C   -2.8839637693   -1.0377781615    0.9613605887
 N   -2.2413760350    0.2347808457    0.6495322507
 C   -1.9571914858    1.2155705171    1.7062760691
 C   -2.0916681615    0.8012234645    3.1068316185
 C   -2.2426880461    0.4772600561    4.2557458360
 H    0.8864564032   -3.1402124354    1.9122300063
 H   -0.8095664936   -3.5087727465    1.5615739756
 H    0.3021270325   -3.1195456848    0.2435274783
 H   -0.5690004268   -1.1647846685    2.4623978996
 H    0.5632321157   -0.7808049788    1.1739016484
 H   -1.2695931152   -1.2320609595   -0.5394009120
 H   -3.6831736193   -1.3387716590    0.2884225491
 H   -3.0546876248   -1.2727039288    2.0101285147
 H   -0.9470872905    1.6077539855    1.5368686509
 H   -2.6408856906    2.0584284176    1.5424678205
 H   -2.3629983566    0.1953027251    5.2726893842