18

 C    0.0343902881    1.4963446029    0.0508525808
 C    0.0123980397    0.0040398502   -0.0067070957
 C   -0.0203733372   -0.7965274515   -1.0733086615
 C   -0.0739349988   -2.2514781181   -0.6735088256
 N    0.0067564629   -2.2742012947    0.8055859233
 C    1.2457496215   -1.7309070768    1.3506893512
 C    0.0390358671   -0.8429139136    1.2407323664
 C   -0.7062063226   -0.4342148688    2.3987829846
 C   -1.3150082316   -0.0496476525    3.3619436836
 H    0.9517242976    1.8619512107    0.5287508716
 H   -0.0319232509    1.9345516086   -0.9478241213
 H   -0.8005974498    1.8724528000    0.6527800563
 H    0.0026880278   -0.4657825516   -2.1055886382
 H   -1.0116156140   -2.7304034644   -0.9849102523
 H    0.7436601236   -2.8478037972   -1.0987666521
 H    1.5241025492   -2.1357941191    2.3196791211
 H    2.0713531075   -1.5108422458    0.6762631085
 H   -1.8592042100    0.2729649418    4.2147763695