22

 C    3.4210845756    0.7878620138   -1.3472647008
 C    2.8409781236   -0.6263200915   -1.2551113041
 C    1.3219462102   -0.6552367875   -1.4780329633
 C    0.7032763870   -2.0453505532   -1.4812506924
 C    0.8002964413   -2.8227486853   -0.1680404243
 C    0.1249584528   -2.1456658090    0.9419689857
 N   -0.4066752037   -1.5963266949    1.8086785387
 C   -0.5366917071   -2.2727431106   -2.3099291271
 C    0.7823774491   -2.8650982293   -2.7472486359
 H    3.2339932427    1.2291190209   -2.3326412759
 H    2.9714803769    1.4490395581   -0.5985566628
 H    4.5029385634    0.7859045359   -1.1831412523
 H    3.3279080403   -1.2753287829   -1.9943356199
 H    3.0831451205   -1.0467990536   -0.2708825144
 H    0.8288841973   -0.0421606760   -0.7116851078
 H    1.0958807287   -0.1777003351   -2.4397473357
 H    0.3539948027   -3.8162522687   -0.2851598553
 H    1.8470885804   -2.9835257282    0.1147964913
 H   -1.2970009384   -2.9451960954   -1.9266796440
 H   -0.9326979750   -1.4319463186   -2.8686996414
 H    1.2841609475   -2.4227149491   -3.6012303679
 H    0.9137586343   -3.9392563395   -2.6673121203