19

 C   -0.2079334132    1.5521204345    0.0608723548
 C    0.0007569183    0.0637072157    0.0491065625
 C   -1.2059118231   -0.9041717218   -0.0017531470
 C   -0.5623099941   -1.7770556442    1.1171297973
 C    0.6505544411   -0.7963797499    1.2115301988
 C    1.7446707340   -1.0844740088    0.1586730981
 O    1.0414803141   -0.3538040893   -0.8654372558
 C    1.0411412176   -0.2944014756    2.4980653677
 C    1.3613259719    0.1369941700    3.5754104977
 H    0.7294154356    2.0743459323    0.2720641406
 H   -0.5738682878    1.8845153212   -0.9173616358
 H   -0.9448975302    1.8363094638    0.8181136757
 H   -2.1509187990   -0.4442119776    0.2987291424
 H   -1.3337989421   -1.3796835447   -0.9760402819
 H   -1.1464143683   -1.8069640548    2.0377471463
 H   -0.2929884419   -2.7994140000    0.8408184635
 H    2.7139728294   -0.6267957005    0.3881108397
 H    1.8920759376   -2.1402240761   -0.1010421671
 H    1.6475014800    0.5148513259    4.5256125623