17

 C    0.1382341357    1.4752789625    0.0330366126
 C   -0.0462853183    0.0040891056   -0.0095688509
 C   -1.1244044520   -0.8198938994   -0.1156968890
 N   -2.4872016003   -0.5248115730   -0.2796090546
 C   -0.6114684361   -2.1664161864   -0.1074549811
 O   -1.3541012589   -3.3281375389   -0.1052203728
 C    0.7411502022   -2.0683736347   -0.0008359755
 N    1.7536879887   -3.0209696143   -0.0066689740
 O    1.1106325598   -0.7714112432    0.0528943794
 H    0.6493484511    1.8652808132   -0.8573969935
 H   -0.8348311348    1.9727120044    0.0926564978
 H    0.7234507091    1.7882351454    0.9067828498
 H   -2.7266847340    0.4119469459    0.0198716660
 H   -3.0642612591   -1.1902022807    0.2229225979
 H   -1.7295040139   -3.4532889712   -0.9846859878
 H    1.3646116275   -3.9463177984    0.1277131685
 H    2.4613246333   -2.8395212668    0.6968293371