19

 O    0.0750156899    0.0946277679    0.3294199605
 C    0.0176791969    1.2813428731    0.0995543595
 C   -1.2170857210    2.0820093323   -0.1610255384
 C   -1.3862261109    3.2953022438    0.7496216636
 C   -0.7765521826    3.4702215078   -0.6014325276
 C    0.7520952550    3.5046311812   -0.6690394563
 C    1.2038484346    2.2094780120    0.0013065840
 C    2.2223637588    2.1432484057    1.1325016882
 C    2.5623118556    1.5848949943   -0.2107108596
 H   -2.0992290970    1.5753511832   -0.5302462125
 H   -2.4066164505    3.6309543039    0.8961540722
 H   -0.7573052682    3.3736506990    1.6307083574
 H   -1.3380059757    4.0023352687   -1.3603629512
 H    1.0714531090    3.5227144537   -1.7174478647
 H    1.1624444827    4.3998900809   -0.1887630311
 H    2.6768487633    3.0799395532    1.4383378901
 H    2.0170829110    1.4434191912    1.9354191751
 H    2.5705159864    0.5054796110   -0.3186594516
 H    3.2630081026    2.1276638869   -0.8362498976