13

 O    0.0694436695    1.3915305510    0.1470445585
 C    0.0543526167    0.0044696230   -0.1061441424
 C   -1.3521977029   -0.5382271240   -0.1370011671
 C   -1.8979799706   -1.2940370574   -1.1036240864
 C   -3.2724916392   -1.7506790134   -0.9786656371
 O   -3.8841309533   -2.4296900097   -1.7531641155
 O   -3.9072676570   -1.3254009642    0.1860535546
 N   -3.2708570868   -0.5150326326    1.1681539998
 N   -2.0982731645   -0.1698523904    0.9927279808
 H   -0.3723854525    1.5347655510    0.9927484110
 H    0.5351031288   -0.1547930272   -1.0746598252
 H    0.6289626054   -0.5572172294    0.6486254646
 H   -1.3557801636   -1.5889503966   -1.9941631556