21

 C    0.3576347946    1.3892201788    0.1348302465
 C    0.1706171573   -0.1204754479    0.3020502664
 C   -1.2185085439   -0.6004137474   -0.1550849411
 N   -1.3410375329   -2.0461921240   -0.0836525518
 C   -1.7946965679   -2.5795728788    0.9876833268
 N   -2.2519839806   -1.9826981225    2.1339870345
 C   -1.9032671555   -4.0950936185    1.0414156997
 C   -1.5540491854   -4.8638824050   -0.2069206129
 O   -2.2603293111   -4.6282692866    2.0722104102
 H    1.3526932511    1.7042135268    0.4633086035
 H    0.2428321350    1.6878118957   -0.9128861552
 H   -0.3791319413    1.9514171596    0.7197148793
 H    0.9277281768   -0.6634904900   -0.2744631370
 H    0.3266721307   -0.4035649266    1.3512086910
 H   -1.9993260529   -0.0777144078    0.4233908891
 H   -1.3603549965   -0.3055719113   -1.2019492071
 H   -1.9532670368   -1.0530135564    2.3692019481
 H   -2.4233803192   -2.6219253324    2.8965499701
 H   -0.5523978819   -4.5939873764   -0.5498392823
 H   -1.6229569201   -5.9328237389   -0.0030504624
 H   -2.2356674294   -4.5868556504   -1.0167193953