19

 C   -1.5081460303   -1.2241827836   -0.1287586584
 O   -0.4034080871   -0.3307976808   -0.2131444522
 C    0.6264617797   -0.6946293611   -1.0858853542
 C    1.9814020999   -0.9295735806   -0.4833744592
 C    1.1955452901   -2.0878375157   -1.0596588983
 C    0.5600241809    0.0533708594   -2.4178380210
 N   -0.7571457597   -0.1013208135   -3.0395288373
 C    0.9389322132    1.4750501478   -2.2300313368
 N    1.2042287093    2.5951343603   -2.1216536638
 H   -1.8723716383   -1.5206196616   -1.1177666072
 H   -1.2565392441   -2.1280495877    0.4416218801
 H   -2.2946108809   -0.6866051352    0.4065641260
 H    2.8570020276   -0.5701848905   -1.0135074306
 H    2.0405558966   -0.8522093790    0.5956247072
 H    0.7641489550   -2.7958535583   -0.3621821498
 H    1.5171166197   -2.5292217537   -1.9967593901
 H    1.3049724744   -0.3895054998   -3.0881518916
 H   -1.4394190656    0.4004263897   -2.4776653858
 H   -0.7598824906    0.3413014136   -3.9538307369