17

 C   -0.1011984349   -1.2379339713   -0.0752830043
 C   -0.0336479683   -0.0384082205   -0.0442238520
 C    0.0300342612    1.4157901985    0.0132332450
 C   -0.6277057421    2.0192330026    1.2906056456
 C    0.2000198806    3.2828191557    1.6198939558
 C    1.5144149712    3.0196342121    0.9365965295
 C    1.4507472182    2.0046249522    0.0632322383
 C    2.4847648590    1.5427379115   -0.7827481955
 C    3.3376221471    1.1241545789   -1.5237879465
 H   -0.1519549983   -2.2978648082   -0.1093658744
 H   -0.4641229428    1.8130875866   -0.8858854665
 H   -1.6911813052    2.2203899167    1.1461590382
 H   -0.5338443238    1.2939523545    2.1028739726
 H   -0.2642169087    4.1945048057    1.2161758867
 H    0.3046814328    3.4462735974    2.6981287080
 H    2.4008503600    3.6205317757    1.1023544472
 H    4.0958984441    0.7583391419   -2.1705638078