19

 C   -0.0284989326    1.4721793876    0.0903798265
 C    0.0120582008   -0.0116676790    0.0224921793
 C    0.0077345896   -0.8465709037   -1.0394094729
 C   -0.0366083739   -0.5735301117   -2.4164824578
 C   -0.0739471430   -0.3707740152   -3.6059259913
 C    0.0650554791   -2.2453698736   -0.3821823453
 C   -0.9774531819   -2.0517037693    0.7675098959
 C    0.0712363514   -0.9746612935    1.2156728987
 C    1.1543325192   -1.9909017903    0.7108996033
 H    0.8534147205    1.8721185325    0.6079287519
 H   -0.0677792422    1.9094092202   -0.9106274709
 H   -0.9028377246    1.8219672615    0.6549629000
 H   -0.1069386512   -0.1837088221   -4.6501314112
 H    0.0724678104   -3.1150307225   -1.0371226340
 H   -1.9755215190   -1.7029287621    0.4921607096
 H   -1.0361122993   -2.9059038198    1.4494624727
 H    0.0857383609   -0.5489298653    2.2190958129
 H    1.2976318164   -2.8393471963    1.3874818762
 H    2.1149071895   -1.5862608477    0.3835403463