12

 O   -0.0259552297   -0.0191194029   -0.0018779364
 C   -0.0086533933    1.1897675504    0.0073428470
 C    1.2314045333    1.9773921089   -0.0002934557
 C    2.5024428972    1.4750724392   -0.0182019441
 O    3.3915738117    2.4643996191   -0.0203454031
 N    2.7349141751    3.6862497276   -0.0037063216
 C    1.4519814928    3.3962436051    0.0083855441
 C    0.4340459454    4.4856179918    0.0280985090
 O    0.6968507550    5.6585803648    0.0356939940
 H   -0.9498798310    1.7766290378    0.0225672791
 H    2.8897453010    0.4684194952   -0.0302610863
 H   -0.6149657773    4.1234486830    0.0353124540