15

 C   -0.3745281848    1.7927954942   -0.3497401940
 N   -0.2725566414    0.3636081026   -0.1167948533
 C    0.4834250138   -0.3888597529   -0.8103499315
 N    0.5583453050   -1.7549769683   -0.5609534431
 C   -0.1399674834   -2.4306694990    0.4192887340
 N    0.0108528393   -3.6871417066    0.5538116699
 C    1.3823476335    0.0155651474   -1.9555565351
 O    1.4974512775    1.1399674420   -2.3661168774
 H    0.5868358764    2.3054237595   -0.2291325475
 H   -0.7290191409    2.0270699687   -1.3602194279
 H   -1.0831361231    2.2054121678    0.3729334431
 H    1.1671395224   -2.3273116104   -1.1282731087
 H   -0.7812672529   -1.7681216898    1.0027639086
 H   -0.5700439932   -4.0314701643    1.3156030053
 H    1.9545156920   -0.8253565210   -2.4142248523