19

 C   -0.0194492061    1.4582787283   -0.0555702059
 C    1.3225980959    0.8160686782    0.1295008829
 O    1.8958310434    0.9988233139    1.3934843396
 C    2.6050342684   -0.1086915024    1.9125103936
 O    2.0108740995   -1.3499859382    1.6711488895
 C    0.6648029279   -1.5449016849    2.0200195955
 C   -0.2229438630   -0.4821974780    2.6141806035
 C   -0.3925156299   -0.8898759796    1.1577881263
 C    0.0920859682   -0.0535911891    0.0089316207
 H   -0.4262211198    1.9606325779    0.8151807243
 H   -0.2496613686    1.9292228603   -1.0047566661
 H    2.0340585963    0.8209387728   -0.6959306814
 H    3.6022886363   -0.1907718343    1.4592149197
 H    2.6963565033    0.1066810441    2.9858261702
 H    0.5202377955   -2.5694919215    2.3470751203
 H   -0.9800434622   -0.8223871685    3.3133144922
 H    0.1850410336    0.4931037235    2.8357024363
 H   -1.2755850830   -1.4810267312    0.9331591687
 H    0.0027764543   -0.5657607011   -0.9457114697