16

 C    0.0536950989    1.5195088108    0.0150090034
 C    0.0191834692    0.0167790869    0.0041677866
 C   -1.1749496788   -0.6633582480    0.0464861992
 N   -2.4236620370   -0.0772212443    0.1443208846
 C   -1.1878514875   -2.1196548334    0.0320597390
 O   -2.1964990489   -2.8136335626    0.0449822515
 N    0.0904189755   -2.6681378557   -0.0078260444
 C    1.2321332256   -1.9202086983   -0.0454528228
 N    1.2346858144   -0.6296670445   -0.0436552370
 H    1.0825639454    1.8638057018    0.1262338508
 H   -0.3465282440    1.9424102190   -0.9168956787
 H   -0.5504796268    1.9223921728    0.8366810466
 H   -2.5426187865    0.8180799401   -0.3035526793
 H   -3.1674509712   -0.7379679910   -0.0425221582
 H    0.1322381837   -3.6785427604   -0.0225163551
 H    2.1650490581   -2.4747786531   -0.0770898959