18

 N   -0.0731542759    1.2793599759    0.3069917199
 C    0.0048547759    0.0587416741   -0.0193485304
 O    1.2012130943   -0.5181864261   -0.3415890516
 C    1.2884572012   -1.8439824875   -0.8959976492
 C   -0.0178661870   -2.6302601376   -0.8259801971
 C   -1.1710296002   -1.7316355875   -1.2759552238
 C   -1.2130097884   -0.8354250733   -0.0254901782
 C   -1.1095107985   -1.9013041201    1.0848402182
 O   -0.3242650664   -2.9638676567    0.5277339517
 H    0.8517797984    1.7134910796    0.2655025788
 H    1.6138818961   -1.7462405642   -1.9400273680
 H    2.0672926551   -2.3665114551   -0.3333353655
 H    0.0900820924   -3.5615187712   -1.3895300970
 H   -0.9665617501   -1.1853272733   -2.1998880416
 H   -2.0969727873   -2.3003817438   -1.3939293727
 H   -2.0973296490   -0.2085021956    0.0730362268
 H   -0.6286849537   -1.5226534541    1.9925159069
 H   -2.1035737368   -2.2837337733    1.3502210928