16

 O    0.0150851369    1.3527680883   -0.4875815769
 C    0.0223702561    0.1269103092    0.2237787865
 C   -1.3505146829   -0.5226628671    0.1892924010
 C   -1.8191254503   -1.1815028247   -1.0536566875
 O   -0.9049986380   -1.1758447884   -2.1116275049
 C   -1.5564598917   -2.0512020958    0.1826200965
 C   -0.4245021912   -3.0050920393    0.2047601783
 O   -0.4453284250   -4.0456626476    0.8197983723
 H   -0.1243190878    1.1295546531   -1.4149900084
 H    0.7922622704   -0.5492659601   -0.1636340497
 H    0.2892212664    0.3708686008    1.2565316837
 H   -2.1047801412    0.0229563508    0.7480847815
 H   -2.8618207248   -1.0690565106   -1.3465189821
 H   -1.0785559049   -1.9321513807   -2.6818739331
 H   -2.4271172604   -2.4189399788    0.7157351251
 H    0.4579482584   -2.7235656490   -0.4055976821