19

 O   -0.0294743566    1.4274734319   -0.1325214003
 C    0.0535069864    0.0467331272    0.1973101815
 C   -1.3207959812   -0.5972772750    0.1122567432
 C   -1.9848757250   -0.7881107274   -1.2807192752
 O   -2.2292864669    0.2938242210   -2.1106382968
 C   -1.0575340693   -2.0146285181   -1.5453434151
 C   -1.5654837534   -2.1220874792   -0.0688992236
 O   -1.2214430654   -3.0528037329    0.8880685096
 C   -2.9951933957   -1.7611605808   -0.6020666585
 H   -0.5001016686    1.4896967788   -0.9721852574
 H    0.7931503934   -0.4671269214   -0.4329607076
 H    0.4265043917   -0.0009793225    1.2257320580
 H   -1.9878153194   -0.1281156183    0.8434287970
 H   -2.5513938064   -0.0245817884   -2.9607891410
 H   -1.4421564266   -2.7664590888   -2.2418536255
 H    0.0039072210   -1.8297543576   -1.7072435790
 H   -1.4812522528   -3.9264424789    0.5762993746
 H   -3.6898050735   -1.3235079228    0.1184103839
 H   -3.4762935518   -2.5025820068   -1.2475450077