24

 C   -0.1701762642    1.5782333249    0.4575277084
 C    0.1311869133    0.1745853892   -0.0650456172
 N    0.8076385823   -0.6044437691    0.9658757535
 C   -0.0072034476   -1.4341508122    1.8481259760
 C    0.9331531686   -2.0644126538    0.8688652258
 C    0.3613391263   -2.8153163657   -0.3215437289
 C    2.2763959335   -2.5766619301    1.3695877016
 C    2.2265276710   -3.9676479446    1.9949712859
 O    3.5261428482   -4.2569432363    2.4905915697
 H    0.7500509993    2.0734327955    0.7790800369
 H   -0.6448687555    2.1870099666   -0.3184822177
 H   -0.8478460456    1.5357477749    1.3166341817
 H   -0.8064188887   -0.2884247943   -0.4152634216
 H    0.7997396980    0.2370523460   -0.9323916522
 H    0.2334835404   -1.3914802753    2.9082971697
 H   -1.0736358320   -1.5089226745    1.6321731014
 H   -0.6070879353   -2.4235097502   -0.6380042723
 H    1.0454072022   -2.7654815750   -1.1770603372
 H    0.2190699755   -3.8731840465   -0.0787594016
 H    3.0007483989   -2.5876317041    0.5449983277
 H    2.6597822551   -1.8752557436    2.1162239090
 H    1.4775225830   -3.9826581243    2.8037263632
 H    1.9161768520   -4.7176758797    1.2506668068
 H    3.5112326013   -5.1380262778    2.8752116813