16

 C    0.2055478698    1.4875433284   -0.4135260120
 C   -0.0262854973    0.0461049726   -0.0264268538
 C   -1.2565135263   -0.6119659010   -0.6126637821
 O    1.1392857382   -0.7765141152    0.0139762878
 C    0.5110576844   -0.5167866492    1.2567600589
 C    1.2548980968    0.3314397525    2.2353406735
 O    2.2208651629    1.0111285351    1.9962975574
 C    0.6729839671    0.2984358905    3.5970734860
 N    0.2048877890    0.2691733793    4.6540309953
 H    1.1162797319    1.8805755633    0.0382086418
 H    0.3036215739    1.5554495852   -1.5020521105
 H   -0.6459557475    2.1077828857   -0.1161072727
 H   -1.2152276005   -0.5664100642   -1.7060664006
 H   -1.3230242280   -1.6605941714   -0.3147544285
 H   -2.1641245464   -0.0929939242   -0.2892854660
 H   -0.0275742979   -1.3513872674    1.7069273553