19

 C    0.0285756184    1.1784004644   -0.5862318464
 O   -0.0686138262    0.0255135497    0.2388680105
 C   -1.3317047211   -0.5760539740    0.1767734101
 C   -1.4271665068   -1.7882432772   -0.7229151970
 O   -0.2819723997   -2.1410621799   -1.4355953009
 C   -1.4515230639   -1.9489369410    0.7905722325
 C   -0.2776790307   -2.5856343841    1.5245859778
 C   -0.5723666459   -3.9495580868    1.9513776271
 C   -0.8342254069   -5.0674477168    2.3064845635
 H    1.0464069089    1.5604135032   -0.4821802554
 H   -0.1673521909    0.9423383713   -1.6408639480
 H   -0.6801648701    1.9537938262   -0.2633644679
 H   -2.1643170291    0.1209006621    0.2693713941
 H   -2.3331240364   -1.9853612264   -1.2871109939
 H    0.4028587395   -1.5062814874   -1.1846599836
 H   -2.4209031732   -2.1662247458    1.2286476157
 H    0.6005261369   -2.5941893531    0.8710909285
 H   -0.0077306995   -1.9782145963    2.3972151070
 H   -1.0521550432   -6.0584383780    2.6177776765