19

 C    0.0470919493    1.4087031733    0.4196502939
 C    1.4696622802    1.6015565010   -0.2182022630
 C    1.4337201486    0.1172333978   -0.7000038458
 C    1.8348428300   -0.9388406339    0.3614382815
 O    0.4612471482   -1.0489684401    0.8296999440
 C    0.0266381647   -0.0482327526   -0.1187904890
 C   -0.9146102515   -0.5294554564   -1.2267027677
 C    0.0363676340   -0.6209967908   -2.4159594311
 C    1.2996035530   -0.2692733383   -2.1371482799
 H    0.0126515293    1.4619294721    1.5095680578
 H   -0.7267624475    2.0613902132    0.0073935381
 H    1.4845900000    2.3193834184   -1.0409722058
 H    2.2746701179    1.8537968394    0.4768524072
 H    2.2026576826   -1.8927995327   -0.0337301488
 H    2.5098915801   -0.5896256762    1.1532883038
 H   -1.3539275470   -1.5017563006   -0.9736233757
 H   -1.7477104084    0.1583326115   -1.4203885066
 H   -0.3050069455   -0.9507830994   -3.3927842046
 H    2.1115744821   -0.2715679556   -2.8573334682