19

 O    0.1624313697    0.1605552400   -0.4063442071
 C    0.2559300400    1.3502931738   -0.4422848591
 O    1.0356732181    2.0449385457    0.4118637928
 C    1.0482364203    3.4519763035    0.2487969113
 C    2.1835981516    4.1658479507    0.9140798705
 C    2.1267288850    4.0797843397   -0.5873520950
 C    3.0583741279    3.3209213961   -1.5410098837
 C    2.5757419747    4.2631568918   -2.6847637959
 C    1.9106308122    5.1909347954   -1.6239241354
 H   -0.2820965362    2.0010284765   -1.1588167983
 H    0.0578238892    3.9012019921    0.2647731213
 H    1.9761075812    5.1136873900    1.4003440102
 H    2.9120054836    3.5411462870    1.4211812879
 H    4.1150039277    3.4587302273   -1.2935214909
 H    2.8717454272    2.2511766946   -1.6634153422
 H    3.3516038181    4.7125306497   -3.3071190369
 H    1.8429007789    3.7840241204   -3.3383432350
 H    0.8780668010    5.5003294879   -1.8102095794
 H    2.5056800299    6.0843031278   -1.4101449048