16

 C   -0.1196935189    1.5060221204   -0.1213486907
 C    0.0120839226    0.0063073154   -0.0029340851
 C    1.3286716733   -0.6757736428   -0.2151211890
 C    0.7284594378   -0.6341080937    1.1888744404
 C    1.3304289421    0.1643105877    2.2071255181
 C    1.8319728717    0.8276816462    3.0896234128
 C    2.4002715813    1.5757173823    4.0722097642
 C    2.9049264435    2.2398910401    4.9464647467
 H    0.7711609368    2.0134188052    0.2588608765
 H   -0.2575504291    1.7993055918   -1.1675355444
 H   -0.9791152165    1.8739476170    0.4486312385
 H   -0.8620791543   -0.5522222018   -0.3269563705
 H    1.3563720574   -1.6392766230   -0.7114327138
 H    2.1982342783   -0.0510817158   -0.3868319081
 H    0.3007286363   -1.5673134846    1.5449465686
 H    3.3491675178    2.8230936257    5.7140255159