17

 C   -0.0243623458    1.5307962091    0.0166554815
 C   -0.0083024180    0.0186547726   -0.0407405169
 C    0.7373305395   -0.7268974653   -1.1899626157
 C    0.3988803017   -2.0956570452   -0.5840693553
 O    0.9761712358   -1.9506887089    0.7657844851
 C    0.7231422188   -0.6650133306    1.1419428317
 O    1.0353899867   -0.2040554995    2.2011897797
 C   -1.1154410472   -1.9885649307   -0.4373900901
 C   -1.3530987084   -0.7218733685   -0.0910787393
 H    0.9916040878    1.9343613467   -0.0151951173
 H   -0.5886016354    1.9505151761   -0.8216441673
 H   -0.4814141010    1.8714297826    0.9501831044
 H    0.2843546564   -0.5530110064   -2.1672959409
 H    1.8135858705   -0.5311908294   -1.2206631622
 H    0.8207641018   -2.9969287675   -1.0210845039
 H   -1.8110757293   -2.8130656700   -0.5062908348
 H   -2.2925518840   -0.2660246151    0.1934847614