17

 C   -0.0911784544    1.6322268073    0.0076573321
 C    0.0551464709    0.1165671305    0.0115702633
 C    1.1014599524   -0.5806484448   -0.9110491304
 O    1.2086286137   -0.6460822734   -2.1043899787
 C    1.7515071177   -1.2922788283    0.2352469077
 O    2.2556017298   -2.5715719150    0.2488601043
 C    2.1396201795   -0.2657054089    1.3224924786
 C    0.7018568892   -0.6196097421    1.1887631831
 O   -0.1020039986   -1.1467810000    2.1683037748
 H    0.8457076482    2.1350128398    0.2670196899
 H   -0.3870437582    1.9744968174   -0.9885950134
 H   -0.8564423055    1.9574710338    0.7189823850
 H   -0.9078687784   -0.3628753551   -0.2077197196
 H    3.1707474885   -2.5508193445   -0.0544917113
 H    2.6508754339   -0.7655938068    2.1431565513
 H    2.5392122504    0.7174411669    1.0865038121
 H    0.4465485311   -1.5853157069    2.8279284912