21

 C    0.3189422795    1.0496158253    0.3993139824
 O   -0.0711821412   -0.0010594522   -0.4747511728
 C   -1.3668317527   -0.5390371106   -0.2043057705
 C   -1.9292447983   -1.0243573020   -1.5613661028
 O   -1.6591673767   -0.1414515466   -2.6211198624
 C   -1.3553613674   -2.4459526204   -1.6968097524
 C   -1.5418108485   -3.0128191062   -0.2822157490
 C   -1.2545009229   -1.8278961654    0.6844657647
 O    0.0092936759   -1.9175009434    1.3162210878
 H    1.3069648178    1.3847807646    0.0740217224
 H   -0.3833909465    1.8920896807    0.3383763492
 H    0.3761027838    0.7005603645    1.4365570264
 H   -1.9912188729    0.2383510906    0.2494553989
 H   -3.0216564343   -1.0913290879   -1.4769449506
 H   -0.7661541623    0.1887754886   -2.4558666087
 H   -1.8526399365   -3.0260834265   -2.4774816353
 H   -0.2921173686   -2.3784822944   -1.9584946937
 H   -2.5752821838   -3.3545599809   -0.1507896185
 H   -0.8868173134   -3.8543801337   -0.0465375332
 H   -1.9882681112   -1.8024875361    1.4947981147
 H    0.6521701701   -1.6037772277    0.6673053137