17

 O    0.0467527295   -0.1301257902   -0.1285475621
 C   -0.0262403099    1.0863908689   -0.1092909121
 N   -1.1723646864    1.7466134483    0.1930866382
 C   -1.4547238532    3.1714613513    0.0383429469
 C   -1.0597247082    4.0144771936    1.2204689654
 C    0.2028719481    4.4061850630    1.4240153184
 C    1.3594768844    4.1102388612    0.5932040164
 C    1.6824118858    3.0614931053   -0.1920620442
 N    1.1101679141    1.8281860117   -0.4925322822
 H   -1.9177925393    1.1263347925    0.4630467130
 H   -0.9316639079    3.5292379672   -0.8551240908
 H   -2.5254803979    3.2651142912   -0.1616655883
 H   -1.8349642041    4.3008720661    1.9246189976
 H    0.4109656611    5.0503259116    2.2765085209
 H    2.1368909268    4.8694774633    0.6186418031
 H    2.6409788084    3.1359306330   -0.6984381363
 H    1.7742392788    1.1639792419   -0.8626700339