17

 O   -0.2126871498    0.0080727325   -0.2720718904
 C   -0.0483021059    1.1667769759   -0.0004539211
 C    1.2674501729    1.9136805167   -0.0530457886
 O    2.3775291717    1.0395375764   -0.1784296871
 C    3.3179195723    1.6810822805   -1.0189624685
 C    2.9522899021    1.9604034142   -2.4614507179
 C    1.4300836177    1.9858907337   -2.5906075358
 C    1.3756036057    2.8458503202   -1.2823829791
 C    2.9099986824    3.0624167741   -1.3895044812
 H   -0.8972248222    1.8215848864    0.3104378068
 H    1.3413603351    2.5105580672    0.8749224973
 H    4.3438405193    1.4324435569   -0.7779946022
 H    3.6652213893    1.8240662628   -3.2666409194
 H    1.1086303468    2.5689292573   -3.4563409300
 H    0.9061606438    1.0259896481   -2.5775614446
 H    0.7113377251    3.7082159544   -1.2683436349
 H    3.4723540438    3.9763414128   -1.2535313331