20

 C   -0.0390211933    1.5794281405    0.0242398663
 C   -0.0083910900    0.0559167982    0.0075664864
 C   -1.4027597504   -0.5287102034   -0.2338554869
 C    1.0685923515   -0.6482492005   -0.8791157433
 C    2.4503879108   -0.2243666543   -0.3418881164
 C    2.2043899809   -0.2453046185    1.1295468126
 C    0.7250069078   -0.6776158576    1.1763118241
 C    1.2237332755   -1.7803259614    0.1872817712
 N    2.7072627796   -1.4805967229    0.4396134291
 H    0.9567956313    1.9980934301    0.1965818038
 H   -0.4111715677    1.9753286463   -0.9278918271
 H   -0.7022134028    1.9503908049    0.8143995707
 H   -1.8079418576   -0.1880122716   -1.1933306461
 H   -1.3929359230   -1.6235575074   -0.2478229995
 H   -2.0995005706   -0.2128814134    0.5507757694
 H    0.9356236668   -0.8117846991   -1.9475695611
 H    3.2502171357    0.3178924706   -0.8308911053
 H    2.7991912522    0.2795269185    1.8668792681
 H    0.2526132777   -0.8701611905    2.1384916626
 H    0.8773285157   -2.8079160887    0.1146937311