19

 C    0.0609129588    1.6632109781    0.1818064704
 C    0.0252399404    0.1660291489   -0.0391716486
 C    0.5272999853   -0.5605171864   -1.2383115026
 C    1.4567601182    0.1324187082   -2.2215840630
 O    0.7631991924    1.1768660176   -2.8971204450
 C    2.6629700799    0.6153447686   -1.3686555747
 C    2.5147208048   -0.0969439442   -0.0028156712
 N    1.1859776842   -0.7397018434    0.0713062209
 H    0.7559977193    2.1908979949   -0.4687730900
 H   -0.9343035742    2.0738002634   -0.0167824756
 H    0.3063261252    1.8920766925    1.2255797261
 H   -0.8456924320   -0.2903242790    0.4310570333
 H   -0.0366503951   -1.4089950983   -1.6173912624
 H    1.7931306124   -0.6151328713   -2.9549394659
 H    1.3355382816    1.5090501092   -3.5958600801
 H    3.6168844110    0.3732490410   -1.8462726049
 H    2.6180780169    1.7032983288   -1.2748762089
 H    3.2580054570   -0.8933499223    0.1047339996
 H    2.6525479942    0.5849965337    0.8426573127