23

 C   -0.0984845865    1.4592437205    0.3503178946
 C   -0.0118188255   -0.0308157777    0.0516935686
 C    1.2958121169   -0.5396492160   -0.5297344005
 C    0.9223565951   -0.8595528032    0.8981761699
 C   -1.2711818726   -0.6429910616   -0.4572440724
 C   -1.9644019840   -1.6563428265    0.0691403359
 C   -3.2109960497   -1.9851501226   -0.7159152826
 C   -3.0043755777   -1.2014384446   -2.0373730470
 C   -1.9641863384   -0.1061024068   -1.7002811028
 H    0.8670323535    1.8448106246    0.6925531024
 H   -0.3869915853    2.0301466947   -0.5389258125
 H   -0.8386870999    1.6613947684    1.1326072567
 H    1.2492910213   -1.3466588715   -1.2527377278
 H    2.0879894078    0.1802766837   -0.7089946583
 H    1.4623584432   -0.3566011269    1.6935339378
 H    0.6462322514   -1.8820412516    1.1273165104
 H   -1.7016010621   -2.1727566532    0.9859793620
 H   -3.3434205623   -3.0604567909   -0.8832292545
 H   -4.1089912975   -1.6488873711   -0.1767834962
 H   -2.5889915916   -1.8741617054   -2.7947477210
 H   -3.9348402614   -0.7954956669   -2.4427623260
 H   -2.4472496766    0.8574308287   -1.4838535536
 H   -1.2650562780    0.0815967061   -2.5236234733