21

 C   -0.3999914585    1.4667434278    0.1061126723
 C   -0.1076982835   -0.0054235000   -0.0697165448
 C    0.6068770124   -0.6022635250   -1.2742532094
 O    0.1534383040   -1.8161860546   -1.7993583501
 C    1.4073539921    0.3316033047   -2.1875489182
 C    2.6835151691    0.5901858432   -1.3614249523
 O    2.3338464530    0.3656611637    0.0102112660
 C    1.2960559123   -0.5906700063    0.0597808050
 C    1.5923739999   -1.8103537103    0.8861077486
 H   -1.2002014304    1.8064946903   -0.5612497330
 H   -0.7177532383    1.6716452365    1.1338582445
 H    0.4892633316    2.0723246338   -0.0827527146
 H   -0.8761870056   -0.6749880301    0.3132873950
 H   -0.7149929022   -1.6683071258   -2.1888234999
 H    1.6237704644   -0.1801910903   -3.1280807056
 H    0.8747751767    1.2598106485   -2.4183417938
 H    3.4827326610   -0.1038415341   -1.6614002575
 H    3.0670778344    1.6111430879   -1.4420984908
 H    1.6847033143   -1.5537825905    1.9464715862
 H    0.7924172692   -2.5459311357    0.7714448930
 H    2.5313613241   -2.2729652137    0.5651747994