22

 C   -0.6337308720    1.0946401281    0.1390080839
 N    0.0264271111   -0.2041012391    0.2103646172
 C    1.4311022040   -0.2448753352   -0.1815643572
 C    1.0459101899   -0.4559918420    1.2413277232
 C    1.3983454855    0.5272141220    2.3423808154
 C    0.5461422414    0.3117939357    3.5825151220
 O   -0.8403463222    0.4180041587    3.3676259105
 C    0.9994020987   -0.6595155719    4.6479870941
 C    0.9962400829    0.8367031033    4.9078857269
 H    0.0446366099    1.9568791981    0.2341902152
 H   -1.1327755956    1.1711730102   -0.8323732915
 H   -1.3848011892    1.1723657287    0.9289053699
 H    1.7399759391   -1.0800056317   -0.8055961285
 H    1.9096972632    0.7035421998   -0.4268782654
 H    1.0226584422   -1.4894208695    1.5910064034
 H    2.4540759193    0.3980561381    2.6106698523
 H    1.2864076982    1.5595158411    1.9951148159
 H   -1.1105847203   -0.3308960908    2.8234825932
 H    0.2304909917   -1.2460900989    5.1377549872
 H    1.9534705028   -1.1625720292    4.5294115806
 H    1.9470156039    1.3558330420    4.9638308891
 H    0.2234237357    1.2253009326    5.5605298425