17

 C   -0.2058113511   -0.8941652444    0.8407235055
 C   -0.0488788701    0.1112152257    0.2036826464
 C    0.1264849661    1.3373620694   -0.5778752244
 C    1.4885730673    1.8728173321   -0.5351236966
 C    2.6060706046    2.3165067370   -0.5131599636
 C    3.9555293373    2.8696554425   -0.4568879525
 C    4.0461113750    4.1186449438    0.4036946307
 C    5.0437972543    5.1599814981    0.1364195876
 O    3.6694932437    5.3474884817   -0.2105056055
 H   -0.3393900918   -1.7832355814    1.4055391016
 H   -0.1591744202    1.1445720140   -1.6212732689
 H   -0.5778036453    2.0996920669   -0.2169934666
 H    4.6460636769    2.1152012700   -0.0556142675
 H    4.3074641286    3.1164400461   -1.4658346531
 H    3.6820447786    3.9985843746    1.4244344871
 H    5.4130254723    5.7808397830    0.9511744680
 H    5.7259521838    5.0462608708   -0.7056188782