14

 O   -0.1003699448    1.4713884828    0.0111958717
 C   -0.0191223407    0.0731332941    0.0026239439
 C   -1.4144444336   -0.5053468077    0.0135823710
 O   -2.4319484470    0.1427627273    0.0274670519
 C   -1.4638504386   -2.0533626981    0.0055900354
 O   -0.4601083344   -2.7222333214   -0.0076273551
 N   -2.7717038013   -2.5014426712    0.0153362591
 C   -3.2297991729   -3.8177953835    0.0122866329
 O   -2.5440260368   -4.8008738460    0.0001911933
 H    0.7950356035    1.8217748721    0.0042553285
 H    0.4957026841   -0.3356773549   -0.8828176565
 H    0.5135452984   -0.3454093047    0.8728283656
 H   -3.4555611111   -1.7520225621    0.0258099977
 H   -4.3372161849   -3.8391175967    0.0222188008