19

 C    0.0570805281    1.5809284993   -0.0013789410
 C    0.1242546941    0.0534340256   -0.0480220093
 C    0.6612593220   -0.5543683444    1.2608169474
 C    0.6674524027   -2.0479654458    1.2442688287
 N   -0.3889433206   -2.8359731100    1.1033508538
 C    0.1525831598   -4.0885034558    1.1394909688
 N   -0.6222878536   -5.2187748636    0.9631791979
 N    1.4686726582   -4.1360436485    1.2997730548
 N    1.7744376914   -2.8037310523    1.3568985123
 H    1.0463474169    2.0205423976    0.1698443228
 H   -0.3283724211    1.9871523135   -0.9412910563
 H   -0.6010713295    1.9242030582    0.8045877488
 H   -0.8681402159   -0.3668453130   -0.2397142196
 H    0.7615316995   -0.2690814699   -0.8802422332
 H    1.6758248948   -0.1871364716    1.4586880302
 H    0.0364005835   -0.2158927683    2.0965054486
 H   -1.5781128553   -5.0877281877    1.2599751081
 H   -0.2054412562   -6.0565300082    1.3423480235
 H    2.7305228213   -2.5169402551    1.4807559738