16

 C    0.5161699221    1.0491999862   -0.5355566959
 O   -0.1189888718    0.3250203118    0.5155497281
 C    0.5972830146   -0.6763412017    1.0452510443
 N    0.1196562897   -1.3489106503    2.0012608944
 C    0.8834208078   -2.4581219410    2.5530113172
 C    0.0261311860   -3.7310530967    2.3506287807
 O   -0.2672594035   -4.4922538325    3.2270284842
 C    2.2089227819   -2.7213505758    1.9840958143
 C    3.2753223422   -2.9673592861    1.4840125714
 H    0.7639517075    0.3940548930   -1.3787175169
 H   -0.2018188368    1.8007785225   -0.8643262982
 H    1.4254108665    1.5489967678   -0.1823092654
 H    1.5845351404   -0.8361389303    0.5938528078
 H    0.9677041376   -2.3179184716    3.6365081135
 H   -0.2983334288   -3.8667693787    1.2964846290
 H    4.2281365246   -3.1884395867    1.0688578614