19

 C    0.0197558371    1.4010482296    0.3059679147
 C   -0.1195682680   -0.0609349307   -0.0478238889
 C    0.5955843947   -0.7148202373   -1.2174157138
 C    1.5123102573    0.0339572792   -2.1308673809
 C    2.1140663141   -0.6698737242   -3.2941551088
 N    1.0673393899    0.3434079271   -3.4989310134
 N    0.9654254812   -0.9949347449    0.1560642624
 C    2.1679078098   -0.7875985425    0.7942386125
 O    2.3010659976   -0.2172057677    1.8516039835
 H    0.9754949612    1.8202551235   -0.0131086140
 H   -0.7837342442    1.9742773757   -0.1669132585
 H   -0.0492659371    1.5316672148    1.3889167403
 H   -1.0943450169   -0.4832330049    0.1965304838
 H    0.0731250849   -1.5358499260   -1.7134017224
 H    2.0829337171    0.8344893197   -1.6674045841
 H    3.1011742675   -0.3876682358   -3.6482381452
 H    1.8633901020   -1.7185718822   -3.4350094775
 H    0.1742349916   -0.1083126552   -3.6854913515
 H    3.0044078103   -1.2791530982    0.2598817018