23

 C    0.1305320560    1.5548097121   -0.0161824038
 C    0.0073228561    0.0633078765   -0.0738120546
 C   -1.1026262767   -0.6875427123   -0.0162494406
 C   -2.5170949734   -0.2180361738    0.1448475849
 C   -0.7690831583   -2.1741692710   -0.0462461237
 C   -1.6224300168   -3.0302570742   -0.9823441682
 O   -2.9226307117   -3.1778183632   -0.4270204444
 C    0.7230904644   -2.1986113584   -0.4581016565
 C    1.2586138868   -0.7866105030   -0.1456484317
 H    0.7467149462    1.8638252447    0.8389038670
 H    0.6332885977    1.9422812242   -0.9121934421
 H   -0.8349706930    2.0584984915    0.0693849147
 H   -2.5884103704    0.8716388173    0.1855227899
 H   -3.1547732616   -0.5760404017   -0.6698403684
 H   -2.9580393390   -0.6243108367    1.0634709863
 H   -0.9045621604   -2.5963416491    0.9618006729
 H   -1.6622244914   -2.5558523099   -1.9768258358
 H   -1.1377210272   -4.0125530944   -1.1060411101
 H   -3.4555131301   -3.6914489323   -1.0408911262
 H    1.2840107276   -2.9947226084    0.0387530113
 H    0.7926288266   -2.3834298229   -1.5371352689
 H    1.9708871613   -0.4286039209   -0.8998301717
 H    1.7963683276   -0.7557033640    0.8140568598