23

 C    0.0825020814    1.4969525525   -0.1231804176
 C   -0.0095159820   -0.0176460697    0.0777068150
 O    0.6661920524   -0.4258954898    1.2691367427
 C   -1.4321385195   -0.5508404366    0.0468399836
 C   -2.3220332824   -0.4747149021   -1.2349117837
 C   -3.0936575839   -1.6266834828   -0.5311438133
 C   -1.7113319915   -2.0856928912    0.0097791268
 C   -3.6897866834   -0.9095021413    0.6949723212
 C   -2.4314064030   -0.0905489556    1.1381077782
 H    1.1295003248    1.8116622303   -0.1151448506
 H   -0.3643368391    1.7986894333   -1.0759344606
 H   -0.4402941701    2.0355191787    0.6760446488
 H    0.5518995263   -0.5092500763   -0.7270540229
 H    0.2611919014    0.0427152561    2.0068170609
 H   -2.8575144487    0.4578388670   -1.4409996197
 H   -1.7894998675   -0.8081030123   -2.1296873795
 H   -3.7490641037   -2.2994546559   -1.0850283155
 H   -1.1061241986   -2.5951829607   -0.7444778661
 H   -1.6790801270   -2.6381415401    0.9532443267
 H   -4.5362818092   -0.2675746933    0.4337275385
 H   -4.0260897909   -1.6108267971    1.4641256419
 H   -2.0949711629   -0.3596304413    2.1445665830
 H   -2.6091828628    0.9886546782    1.1186341722