16

 C    0.1147266035    1.6244392725   -0.0611447873
 C   -0.0690383184    0.1184095071    0.1120287918
 N   -1.4513476597   -0.2616879250    0.3477525816
 C   -1.8584539994   -0.9487631290    1.4412344772
 O   -1.1502917093   -1.3701117694    2.3374731882
 C   -3.3740316101   -1.1707025257    1.4770956189
 O   -4.1214623232   -0.7705787721    0.6225473755
 C    0.4849096970   -0.6818709199   -1.0697244389
 O    1.2195706909   -0.2326709658   -1.9076827166
 H    1.1601809964    1.8460321952   -0.2838916173
 H   -0.4851976324    1.9980696942   -0.8970320307
 H   -0.1811974762    2.1533957414    0.8474784028
 H    0.4763963701   -0.2365902163    0.9980204790
 H   -2.1796783293    0.0369241174   -0.2877147070
 H   -3.7051826459   -1.7338228748    2.3708532939
 H    0.1455469359   -1.7416898698   -1.0889263213