16

 O    0.0975863646    1.3255895292   -0.3145702217
 C    0.0740168090    0.0024839112    0.1925493705
 C   -1.3237735774   -0.5785856061    0.1430630176
 C   -1.9081447984   -1.2254441329   -1.0671975497
 O   -0.9274573922   -1.9139568685   -1.8339664196
 C   -0.6850921602   -2.8443482096   -0.7475634064
 C   -1.6360145294   -2.0773178247    0.1809074278
 C   -2.5211195102   -2.6713028912    1.1215923066
 N   -3.2336495496   -3.1628022752    1.8906905430
 H   -0.0709891613    1.2781815330   -1.2615217412
 H    0.7789565879   -0.6447177718   -0.3433591574
 H    0.4073728370    0.0701670985    1.2325389066
 H   -2.0611859432   -0.0090150699    0.7041673158
 H   -2.8405145305   -0.9564040719   -1.5499239654
 H   -1.0684930422   -3.8365847362   -1.0020859150
 H    0.3704771259   -2.9059104739   -0.4665593715