23

 C   -0.2175373410    1.5636455093    0.0492820805
 C    0.0219487225    0.0495935888   -0.0285055372
 C    0.6633526687   -0.3657063710   -1.3698853479
 O    2.0726996646   -0.1781142863   -1.4069998114
 C    2.7608510518   -0.7098969723   -0.2721850014
 C    2.3503244797   -2.1628088952    0.0607361446
 C    1.1211311094   -2.0174218004    1.0099110242
 C    0.8931005419   -0.4864128259    1.1345970720
 C    2.3285913776    0.0542991366    0.9855234412
 H    0.6930820257    2.1281566919   -0.1704907536
 H   -0.9760216286    1.8710519074   -0.6783440673
 H   -0.5690694213    1.8619914440    1.0429516529
 H   -0.9551387018   -0.4496402192    0.0273575124
 H    0.4170884760   -1.4163602775   -1.5861887664
 H    0.2638559892    0.2331669456   -2.1945489755
 H    3.8213466459   -0.6121997680   -0.5155784057
 H    2.1344627982   -2.7323033120   -0.8467116038
 H    3.1803065851   -2.6664606254    0.5646341199
 H    0.2348227647   -2.5354386939    0.6307435919
 H    1.3412116958   -2.4429294827    1.9937300455
 H    0.4302914266   -0.2199537942    2.0896382213
 H    2.9460325783   -0.2330602531    1.8450120369
 H    2.3993656611    1.1364286837    0.8605931071