21

 C   -0.2124931952    1.5907541341   -0.0112109509
 C    0.0489547515    0.0785511426   -0.0047975990
 C    0.8572665017   -0.4485423641   -1.1737916855
 C    1.6746749964   -1.4344586162   -0.8126848906
 C    1.5664411014   -1.7518142312    0.6655877239
 C    2.8809978527   -2.1406564007    1.3554577505
 C    0.8447079274   -0.4787554048    1.2238031428
 C    1.8522190573    0.5383106662    1.7196405751
 O    1.8833926637    0.9761481280    2.8424892651
 H    0.7137844358    2.1705581865   -0.0711267179
 H   -0.8278473185    1.8659944422   -0.8738390060
 H   -0.7454827216    1.9030551082    0.8923138188
 H   -0.9334588142   -0.4188012158   -0.0115369773
 H    0.7196525556   -0.0787921603   -2.1845885077
 H    2.3145367107   -2.0024489254   -1.4800138782
 H    0.8749576636   -2.6000884937    0.7873378347
 H    3.6559569917   -1.3782976506    1.2289718230
 H    2.7332110143   -2.2933786519    2.4291463130
 H    3.2683324417   -3.0745777287    0.9355643360
 H    0.1910094684   -0.7114599080    2.0680251405
 H    2.5932256956    0.8737338936    0.9595149797