18

 C   -0.0216069627    1.5177533821   -0.0524202328
 C    1.3960846620    2.1149744952    0.0125978380
 C    2.1034627189    1.7998808291    1.3482133010
 C    1.8937683527    0.3563721567    1.6969529399
 C    0.9522296700   -0.4237383245    1.0995158139
 C   -0.0077873546   -0.0243469563    0.0338605842
 O    0.9818207762   -1.6695662982    1.5969745891
 N    1.9822976973   -1.7400496791    2.5723382171
 C    2.5058021076   -0.5386119242    2.6173235638
 H   -0.6189086099    1.9161932363    0.7772308384
 H   -0.5196852101    1.8275477794   -0.9763092548
 H    1.9936697003    1.7090876899   -0.8137868287
 H    1.3508038515    3.1987670562   -0.1348271345
 H    3.1707792263    2.0372960659    1.2733334510
 H    1.7040769264    2.4460313608    2.1421349885
 H   -1.0082685623   -0.4164226102    0.2463599743
 H    0.2980015529   -0.4603160647   -0.9268318685
 H    3.3132157772   -0.3521640344    3.3126659202