19

 C   -0.0272756247    1.4847113065   -0.1723608247
 C    0.0162154188    0.0015776016    0.1062290525
 N    1.2683281735   -0.8209880222   -0.0182143896
 C    2.4614183371   -0.0476727666    0.0989192432
 N    2.7426764632    0.5096178030    1.2065203963
 C    1.6314757642    0.2114373718    2.1286227468
 C    0.6218956937   -0.6079701171    1.3166132120
 C    0.0316689177   -1.8484328184    1.9492302958
 O    1.0399667335   -2.7581183342    2.3496283412
 H    0.8405901668    2.0163178811    0.2219093052
 H   -0.0833962577    1.6720857643   -1.2496650130
 H   -0.9263945320    1.9118026837    0.2847160403
 H   -0.8275617212   -0.5397181658   -0.3189945804
 H    3.1121024974    0.0073175455   -0.7695800157
 H    2.0048038467   -0.3811155506    2.9707344168
 H    1.2283524328    1.1466328804    2.5334278239
 H   -0.5191750180   -1.5832554638    2.8587704335
 H   -0.6807658536   -2.3143776957    1.2520019115
 H    1.5464238419   -2.9697644134    1.5563597745