18

 N   -0.3457183207   -1.1272868064   -0.1323671695
 C   -0.2162388817    0.0229133233   -0.0888966149
 C   -0.0599770831    1.4424738631   -0.0214365840
 C    0.4858395895    2.1032891773    1.2606319912
 C    0.9447295004    1.2527194088    2.4422453935
 C    2.4551349695    0.9819658824    2.3552150422
 C    2.8221550325    0.4560006917    0.9730061957
 O    2.5106521461    1.3910106272   -0.0707464984
 C    1.3290580486    2.0987083093    0.0239639541
 H   -0.8232650606    1.9925894632   -0.5619051334
 H   -0.0033387664    3.0388745551    1.5099373772
 H    0.7047026280    1.7722066639    3.3735882662
 H    0.4010678816    0.3016475853    2.4648418908
 H    3.0152517791    1.9042779490    2.5500667305
 H    2.7572039422    0.2481556855    3.1092559880
 H    3.8986047687    0.2907335094    0.8821861497
 H    2.3138171432   -0.4970976784    0.7797772944
 H    1.4064111033    3.0142102203   -0.5540148933