14

 O    0.0039503237    1.3944763054    0.0100112622
 C    0.0620096124    0.0491579518   -0.0785264336
 C    0.0636574373   -0.7530508217   -1.1949821021
 O   -0.0245972681   -0.7175988472   -2.5443380915
 C    0.2683028623   -2.0716251479   -2.9839838412
 C    0.0556184715   -3.0024416550   -1.7523271408
 N    0.1465277355   -2.0048942917   -0.7040363376
 N    0.1790161928   -2.0307453000    0.6384248609
 N    0.1345113239   -0.7657393016    1.0056830376
 H    0.0199426414    1.6054542105    0.9521045171
 H   -0.3927609824   -2.3032444576   -3.8194601050
 H    1.3095053772   -2.1050854518   -3.3211638989
 H   -0.9257954519   -3.4872926899   -1.7458813614
 H    0.8333096345   -3.7632270831   -1.6658758057