18

 O    0.8397385438    0.9777784100   -0.2437090266
 C    0.3045157760   -0.2786537573    0.0604525150
 C   -0.3419436516   -0.5722793803    1.4480262261
 C   -1.4569640425    0.4504013139    1.1386890077
 C   -1.2286977397   -0.4368760889   -0.1210423458
 O   -1.1302560597   -1.6235210023    0.7754163373
 C   -2.0145680823   -0.5472167490   -1.3742431255
 C   -3.4416308788   -0.1384345485   -1.3987222633
 N   -2.4260602093    0.6851516509   -2.0707391835
 H    1.7815715905    0.9664802312   -0.0481461891
 H    0.8829807886   -1.1180058005   -0.3402290456
 H    0.1185365373   -0.8256527475    2.4026355258
 H   -2.3972700539    0.2740558230    1.6625419296
 H   -1.1742560135    1.5022594541    1.0803094242
 H   -1.6823156864   -1.3415104083   -2.0392374352
 H   -4.1310592938   -0.6473920280   -2.0657555086
 H   -3.8825452943    0.2200153045   -0.4728700444
 H   -2.1948541304    1.4924638531   -1.4953783981