12

 N    0.0184519370    1.3388110013    0.0699860440
 C   -0.0360633499   -0.0118313191    0.0218398430
 N   -1.1796397157   -0.6174967594    0.0155219017
 C   -1.1894619423   -1.9893591434   -0.0029399607
 N   -2.2475346356   -2.6796155900    0.0005861987
 O    0.0573437513   -2.6860788828   -0.0335147535
 N    1.2578436627   -2.0316613733   -0.0290382776
 C    1.2221678245   -0.7509664603    0.0001801643
 H    0.8810974249    1.8329548022   -0.0700627666
 H   -0.8481704281    1.8479590774    0.0021838745
 H   -2.0222294513   -3.6736259700   -0.0178379790
 H    2.1876357126   -0.2545287025    0.0074429712