16

 C   -0.0184171505    1.5740752820    0.0631320015
 C   -0.0022541351    0.0791166008    0.0374679308
 N   -0.0541124357   -0.5520525008   -1.1127655062
 O   -0.0219047826   -1.9258872261   -0.7945013815
 C    0.0479486194   -2.0495551023    0.5304721651
 N    0.0917086538   -3.3032102065    1.1003201732
 C    0.0765277870   -4.5548573233    0.5042262966
 N    0.0152060070   -4.7475778625   -0.7471041759
 C    0.0649261822   -0.8217413387    1.1340129524
 H    0.8854084901    1.9673901611    0.5398016913
 H   -0.0748421960    1.9633852631   -0.9550510238
 H   -0.8780656140    1.9467911741    0.6296221382
 H    0.1431125939   -3.2963793025    2.1052752228
 H    0.1248952522   -5.3345355628    1.2743489131
 H    0.0169181897   -5.7454721105   -0.9466516598
 H    0.1167111386   -0.5973387951    2.1862862624