19

 C   -0.2728827432    1.4633286003   -0.0879055063
 C    0.1278801316   -0.0052025160    0.1048747831
 C    0.7698128173   -0.5932341218   -1.1360359242
 C    0.9202994908   -2.0916000433   -1.3555838288
 C    0.4570906036   -3.1176440074   -0.3426075358
 C   -0.0651141204   -1.3090481181   -2.1809866115
 O   -1.4206864946   -1.5587692128   -1.9286820974
 H    0.5950934062    2.0817722978   -0.3417930565
 H   -0.9998886916    1.5742536732   -0.9007731416
 H   -0.7230104650    1.8765685408    0.8202051019
 H    0.8228612004   -0.0828518445    0.9506997369
 H   -0.7562289430   -0.5888479326    0.3767377314
 H    1.5824246972    0.0134494005   -1.5322639663
 H    1.8246439685   -2.3803037088   -1.8856385916
 H   -0.5346553378   -2.8832198004    0.0466336654
 H    0.3997759872   -4.1093185672   -0.8039845728
 H    1.1537316624   -3.1833968373    0.5002885386
 H    0.1691904027   -1.1404626752   -3.2322177485
 H   -1.9014234822   -0.7321195973   -2.0406903860