21

 C   -0.1868121478    1.4188983441    0.3069047170
 O   -0.0908489014    0.0344741443    0.0737002121
 C   -1.3429807429   -0.6136403439    0.0847731252
 C   -1.1082551094   -2.1166108827   -0.1394304712
 C   -0.2501866728   -2.7299079440    0.9842690248
 C   -2.3883252638   -2.8067073650   -0.2835506994
 C   -3.4513597486   -3.3647103885   -0.3754299607
 C   -4.7291109725   -4.0501944661   -0.5191946308
 O   -5.3740317970   -4.1364151717    0.7470580197
 H    0.8261942640    1.8274941319    0.2760080448
 H   -0.7964698630    1.9214041536   -0.4607881462
 H   -0.6292667554    1.6377132561    1.2916115238
 H   -1.8582425843   -0.4562611353    1.0472445747
 H   -1.9954756801   -0.2133993608   -0.7075033532
 H   -0.5548384562   -2.2089054174   -1.0840923573
 H   -0.0312554067   -3.7797839851    0.7744877677
 H    0.6882424782   -2.1788988000    1.0734000039
 H   -0.7798710688   -2.6785371234    1.9406330114
 H   -5.3528287616   -3.5029628659   -1.2451999286
 H   -4.5538239011   -5.0521145743   -0.9445468722
 H   -6.2077576188   -4.5983114660    0.6116275544