13

 O   -0.0295403848    1.2859490422    0.0093417652
 N    1.2643178460    1.8243482250   -0.0002842744
 C    2.1034367150    0.8257009124   -0.0138159199
 C    1.4268410176   -0.4320787671   -0.0140342811
 C    0.0742235361   -0.0591253778    0.0010848132
 N   -0.9810438504   -0.8533402377    0.0070299949
 C   -0.6713570902   -2.1521085251   -0.0029732429
 C    0.6384213540   -2.6634314494   -0.0184229227
 C    1.7213711305   -1.7962270622   -0.0242436459
 H    3.1636932932    1.0375335118   -0.0229506641
 H   -1.5141435076   -2.8382662513    0.0014972587
 H    0.7870186300   -3.7366481032   -0.0256491051
 H    2.7419009704   -2.1629875074   -0.0361114527