25

 C   -0.0099746251    1.5873315153    0.2599745508
 C   -0.0305120283    0.0845986986   -0.0324826293
 C   -1.4303764439   -0.5298255993    0.0703782482
 C   -1.4503187888   -2.0418706959   -0.2263887907
 C   -2.8117620791   -2.6639883326   -0.1187203909
 C   -3.5288290270   -3.2031236921   -1.1076797438
 C   -4.8382002829   -3.7874366731   -0.6363567780
 C   -4.9694759206   -3.2234510231    0.8022167524
 C   -3.5347169135   -2.8068327513    1.2093513436
 H    1.0014929550    1.9976044326    0.1777468233
 H   -0.6495518723    2.1358496272   -0.4404970214
 H   -0.3734625784    1.7989577139    1.2718432210
 H    0.3724393639   -0.0992171496   -1.0374031032
 H    0.6435940657   -0.4339370722    0.6624005572
 H   -1.8320935599   -0.3452334807    1.0751993651
 H   -2.1085263716   -0.0206020548   -0.6267875439
 H   -1.0475161094   -2.2152167711   -1.2317306807
 H   -0.7639693787   -2.5421119218    0.4733889990
 H   -3.1992097175   -3.2656050034   -2.1402560587
 H   -5.6874563388   -3.5115688372   -1.2723409585
 H   -4.7983321370   -4.8867606181   -0.6429947779
 H   -5.6117658951   -2.3371161017    0.7850421470
 H   -5.4205596752   -3.9342092058    1.4994563534
 H   -3.0415608929   -3.5761803889    1.8225423541
 H   -3.5220047487   -1.8900095751    1.8095420620