19

 O   -0.1447501182    1.3751154797   -0.0720309141
 C   -0.0120168776   -0.0365816186    0.0348555633
 C    0.4722297847   -0.5725970421    1.4175632052
 C   -0.7976484230   -1.3624102786    1.8126487188
 O   -0.7727476709   -2.1172097247    2.9827501900
 C   -1.9295506807   -0.3454223097    1.4669992502
 C   -1.4244650371   -0.6422316371    0.0166519969
 O   -2.1803190615   -0.4035723554   -1.1222722697
 C   -1.1557466178   -2.0899712433    0.4907646697
 H    0.7262039483    1.7576615599   -0.2117313054
 H    0.5879628939   -0.4249838532   -0.7989708374
 H    1.3547697698   -1.2155486450    1.3521095146
 H    0.6828829730    0.2540592372    2.1048287112
 H   -0.5800952177   -1.5268061038    3.7192063446
 H   -2.9229941731   -0.7629397500    1.6383555368
 H   -1.8516313184    0.6771312812    1.8428808317
 H   -2.0622753369    0.5304626181   -1.3363693129
 H   -0.3765069958   -2.6690578298   -0.0131666762
 H   -2.0759547308   -2.6697701149    0.5785405725