19

 O   -0.7977369857    1.0846406678    0.8726957537
 C   -0.0768705563    0.1230202893    0.1203511964
 C    0.6162057721   -0.9571842945    1.0014284318
 C   -0.6626134520   -1.8100289032    0.8635900555
 C   -1.0674963979   -0.9613973623   -0.3628063114
 O   -0.5555395674   -3.2446525574    0.6925526273
 C   -1.5713923810   -3.4496395849    1.6811900505
 C   -1.1113083127   -2.9566446447    3.0155027422
 C   -1.6675323286   -1.9790620805    1.9968045152
 H   -0.1615303985    1.6108185657    1.3679149296
 H    0.5443539029    0.6027850124   -0.6458821257
 H    1.4526082645   -1.4306986841    0.4790462313
 H    0.9297163192   -0.6648320063    2.0076607564
 H   -2.1112341155   -0.6554587526   -0.4587021713
 H   -0.7315741525   -1.4420821475   -1.2848753694
 H   -2.3116843625   -4.2195081936    1.4996265922
 H   -1.7743031351   -3.1613077189    3.8508597149
 H   -0.0505449799   -2.9720495398    3.2513568932
 H   -2.5184091529   -1.3384280950    2.1806945674