18

 N    0.0402434760   -1.1810666230   -0.1449310016
 C    0.0210259059   -0.0273920184   -0.0943418160
 C   -0.0041755021    1.4371271291    0.0000871038
 N    1.3335862201    1.9854374913    0.0480055149
 C    2.1502396662    1.7488610219    1.2633058943
 C    2.5838801636    3.2164885233    1.1951875464
 C    3.1763921644    4.0741612560    2.2359642272
 N    3.9352811971    3.7218950139    1.0155872715
 C    1.4619099828    3.4582039541    0.1842688739
 H   -0.5193190738    1.8310860059   -0.8839591825
 H   -0.6221807231    1.7081989320    0.8795879796
 H    1.5520238477    1.5181331515    2.1595179938
 H    2.9224674938    0.9810790033    1.1444416753
 H    2.8958610737    5.1215807638    2.3112008788
 H    3.4532862883    3.6115876677    3.1806806459
 H    4.6181618133    2.9954984222    1.2192518395
 H    1.7320550598    3.9778733785   -0.7397105570
 H    0.5768481760    3.9375556071    0.6328780222