21

 C   -0.3554917972    1.4870511743   -0.0557740451
 C    0.1202178080    0.0331709361    0.0607500152
 C    0.8493847653   -0.4665870956   -1.1692210546
 C    0.0784674694   -0.9687535355   -2.3782642781
 C    0.9290058737   -1.9250283151   -1.5676626861
 C    2.3493141613   -2.2203122127   -2.0578225831
 O    2.4359234171   -2.8838492412   -3.3133948055
 C    3.0062488137   -0.8481283935   -2.0354972535
 C    2.1976896873    0.0871976120   -1.5369295441
 H    0.4843607409    2.1755468644   -0.1961433086
 H   -1.0319421314    1.6119534731   -0.9076892178
 H   -0.8884521229    1.7985542387    0.8478227379
 H    0.7739897857   -0.0707198629    0.9365466884
 H   -0.7441676484   -0.6162046033    0.2455914851
 H   -0.9971671320   -1.0825849330   -2.2802815357
 H    0.4065691012   -0.6501499329   -3.3632800570
 H    0.4114292228   -2.6851990001   -0.9942728373
 H    2.8544219141   -2.9051853641   -1.3649962330
 H    1.9320040110   -2.3612588476   -3.9473926049
 H    4.0061113059   -0.6929178149   -2.4244222494
 H    2.4426336944    1.1385246438   -1.4275150828