16

 C   -0.8361130361    1.1486943609    0.3718203822
 N   -0.4779289558   -0.2525353116    0.2607729470
 C    0.6074941215   -0.6385576823    0.8303640244
 N    1.4900445960    0.1231074384    1.5261381135
 C    1.0542274631   -2.1000981518    0.7631811877
 O    2.0533151170   -2.4152190781    1.3632884247
 C    0.2931537571   -3.2066083949   -0.0363752718
 N   -0.8341572263   -2.8046456002   -0.6574626095
 O    0.7526784149   -4.3279781295   -0.0465320143
 H   -0.0565680628    1.8056051269   -0.0438993216
 H   -1.7625392308    1.3356438692   -0.1747357277
 H   -0.9990412476    1.4510598306    1.4186808894
 H    1.2662168325    1.0605893870    1.8059124743
 H    2.2379841220   -0.3679816443    1.9913667425
 H   -1.1199670714   -1.8300777106   -0.5735111873
 H   -1.3548838233   -3.4887575298   -1.1826096634