21

 C   -0.1094572783    1.5208734147    0.0645120002
 C    0.0694660537    0.0151540241    0.1245819533
 C    1.3195904212   -0.7389501586   -0.2367908396
 C    2.5754914276    0.0156218929    0.2249331499
 C    2.0657335429   -0.0931281388    1.6886444648
 O    1.9849561746    1.1246420860    2.4002775306
 C    0.7767623480   -0.7734160137    1.2072309921
 C    0.0995039540   -1.8373744027    2.0145837403
 O   -0.4884719688   -1.2832954168    3.1956686780
 H    0.7293951414    2.0559016552    0.5085707211
 H   -0.2330354586    1.8531604866   -0.9726260519
 H   -1.0099165821    1.8200550794    0.6134473999
 H   -0.8160991835   -0.5253802404   -0.2130399427
 H    1.3129844327   -1.5383747432   -0.9688116342
 H    3.5071805986   -0.5283420001    0.0601741564
 H    2.6901218466    1.0328308194   -0.1573638550
 H    2.6693140943   -0.8235419675    2.2479374755
 H    1.4546939032    0.9525259405    3.1865936209
 H   -0.6452214350   -2.3793612368    1.4111257553
 H    0.8246416152   -2.5739752146    2.3796219902
 H   -1.1558687276   -0.6514619356    2.9068228349