17

 C   -0.0283164130    1.4254378248   -0.0728767196
 C    1.4617392756    1.9244633568    0.0191691030
 C    2.2045945186    0.6966532881   -0.4458157862
 O    3.0844005245    0.6446646160   -1.5837260206
 C    3.5120677302    0.0387262974   -0.3574841937
 C    3.2622301049   -1.4716515599   -0.3350336407
 N    1.8166416156   -1.5906015732   -0.5796098320
 C    1.1862970454   -0.3895849695   -0.4190735750
 N   -0.0215678689   -0.0505573848   -0.1886014945
 H   -0.6007520662    1.7147919521    0.8141087247
 H   -0.5424144935    1.8643833611   -0.9372718352
 H    1.6709689161    2.7879732593   -0.6153024871
 H    1.7188599120    2.1888729235    1.0488691287
 H    4.3997060697    0.4562046108    0.1074179519
 H    3.8419721051   -1.9886583445   -1.1083724188
 H    3.5499503394   -1.8812822163    0.6437526656
 H    1.3346202646   -2.4597428518   -0.4200970606