16

 C   -0.0063416959    1.5545206864    0.1388682811
 C   -0.0475421314    0.0380410695   -0.0551037321
 N   -1.4014991400   -0.4876050664   -0.0659555313
 N   -2.0831605189   -0.6608343404    1.1002731157
 C   -3.2771863109   -1.1016604606    0.7266326829
 C   -3.3985186030   -1.2169126585   -0.6753450700
 C   -2.1634903763   -0.8047126101   -1.1372855730
 O   -1.6303314938   -0.6735990687   -2.3748998239
 H    1.0307425609    1.9012222782    0.1829856888
 H   -0.5059529316    2.0682998878   -0.6876848636
 H   -0.5059854490    1.8290018594    1.0712720186
 H    0.4200216376   -0.2491682533   -1.0000389022
 H    0.4837109275   -0.4670767968    0.7559545267
 H   -4.0200927370   -1.3299346889    1.4774635948
 H   -4.2420466176   -1.5484859176   -1.2586298329
 H   -2.2712581205   -0.9895466999   -3.0187948594