21

 C   -0.0554597092    1.3448707201   -0.0812962188
 O   -0.0485610370   -0.0574228247    0.0148557649
 C    0.7716706060   -0.5250268356    1.0632564682
 C    0.7741847234   -2.0406086398    1.0294884040
 O    1.5939817080   -2.5033922746   -0.0348652359
 C    1.7982514166   -3.8852481705    0.1979142822
 C    1.9311667700   -4.0425369351    1.7309711370
 C    1.3315726234   -2.7263590674    2.2929962906
 O    2.3155223289   -1.8749428007    2.8676207902
 H    0.9505750933    1.7472802826   -0.2803336777
 H   -0.7133114913    1.6137298673   -0.9115989332
 H   -0.4346854380    1.8182018252    0.8395047739
 H    1.8026063873   -0.1596971194    0.9584154557
 H    0.3943708498   -0.1780482584    2.0393136000
 H   -0.2630102994   -2.3852568089    0.8753848577
 H    0.9417041329   -4.4698112884   -0.1760595179
 H    2.6889508487   -4.1934911321   -0.3549457515
 H    1.4116763031   -4.9307541998    2.0992947805
 H    2.9790416648   -4.1080929765    2.0351134881
 H    0.5272732693   -2.9168988626    3.0164657539
 H    2.6792140194   -2.3174208808    3.6402206782