21

 C   -0.3958241866    1.5303969897    0.0209058619
 C    0.0182971115    0.0502924187   -0.0061934219
 C    0.7558769931   -0.3247674880   -1.3114959796
 C    2.2691155650   -0.0429226762   -1.2584857261
 C    2.9084021251   -0.9099701772   -0.1814209714
 O    3.8699010394   -1.6155437953   -0.3991660542
 C    2.2352624456   -0.8855412855    1.1471471188
 C    1.9399836395    0.4701907045    1.7800628401
 C    0.8079697083   -0.3529507320    1.2498060134
 H    0.4652297459    2.1987492424   -0.0851773209
 H   -1.0884157684    1.7523524147   -0.7974801237
 H   -0.8923971783    1.7835206001    0.9628975159
 H   -0.9066931044   -0.5378044840    0.0120477291
 H    0.6174719993   -1.3949939802   -1.5069716212
 H    0.3042526332    0.2048347879   -2.1577517577
 H    2.7579166982   -0.2751384836   -2.2073112839
 H    2.4526174469    1.0179733530   -1.0461542779
 H    2.5477853020   -1.6838530821    1.8105286889
 H    2.0708027142    0.5438220611    2.8536326630
 H    2.2480692057    1.3565125579    1.2376254038
 H    0.2086885246   -0.8397077759    2.0134770036