17

 O   -0.0361895996   -0.0303703072   -0.2942390798
 C    0.0027482915    1.1404187983   -0.0520304716
 O   -1.1223766156    1.9047114786    0.1321918935
 C   -0.6757452797    3.2139387690    0.5585861687
 C   -0.0435394155    3.0331982756    1.9645385450
 C    1.3986591972    2.7927656409    1.4818599415
 C    1.6477663252    4.0985957071    0.6752463058
 C    0.6031719493    3.4862667720   -0.2830756662
 C    1.1752899944    2.0852524417    0.0737939094
 H   -1.5146537239    3.8998223951    0.4642156584
 H   -0.1156334856    3.9259988960    2.5915622833
 H   -0.5060196182    2.1940637410    2.4881552650
 H    2.1226029940    2.3971656355    2.1917057943
 H    1.4281862704    5.0517452819    1.1651979410
 H    2.6381609480    4.1341828672    0.2158452060
 H    0.4596842380    3.8107447884   -1.3130673732
 H    2.0862984901    1.7540507291   -0.4179116809