17

 C   -0.2449170227    1.3912287951   -0.7038376978
 C   -0.0342590799    0.0298796698   -0.0771899360
 C    1.1055002045   -0.8011919425   -0.5176123706
 O    1.1542937839   -0.0964350676    0.7240231907
 C   -1.2304993268   -0.6237761209    0.5111601368
 C   -1.2627774128   -1.4024865148    1.6524840545
 N   -2.5502802973   -1.7869093220    1.8162797230
 N   -3.3745046920   -1.3121240054    0.8643617459
 C   -2.5762434384   -0.6033478000    0.0709735596
 H    0.7036155685    1.7939551710   -1.0667157593
 H   -0.9407475024    1.3283859616   -1.5470608427
 H   -0.6637466428    2.0891618824    0.0274978713
 H    1.0351945021   -1.8848389367   -0.4388745349
 H    1.7776494388   -0.4304200058   -1.2914417387
 H   -0.4791922220   -1.6791331244    2.3383613626
 H   -2.9344464671   -2.3510395503    2.5550774929
 H   -2.9924674336   -0.1044009493   -0.7918171474