16

 O   -0.0036028506   -0.0189469986    0.0029714909
 C   -0.0034831766    1.1901401260    0.0091668540
 C   -1.2573162294    2.0899123794    0.0322747618
 C   -0.7083567340    3.5123377867    0.0328533955
 C   -1.3805049799    4.6595085288   -0.7013150146
 C   -1.3596664866    4.6508103305    0.7986618834
 C    0.7647918771    3.3718460748    0.0116381887
 C    1.1692369859    2.0924612257   -0.0013163745
 H   -1.8771905709    1.8664056313   -0.8416483269
 H   -1.8522811040    1.8560803924    0.9206952331
 H   -0.7478781652    5.3700946058   -1.2227141493
 H   -2.3153897013    4.4386790041   -1.2050542900
 H   -2.2802325602    4.4240083077    1.3255839384
 H   -0.7126859788    5.3554088921    1.3104857358
 H    1.4169178015    4.2400121186    0.0077766999
 H    2.1878307031    1.7283102149   -0.0173175665