25

 C    0.1985236370    1.3482135068    0.2235531444
 C    0.1823985460   -0.1882865271    0.2205904892
 C    0.8322238814   -0.7454523731    1.4966773530
 C   -1.2531772150   -0.7011635044    0.0917227968
 C   -2.0600416450   -0.6229611417   -1.2484831392
 C   -1.2115535623   -1.8201165508   -1.7686569010
 C   -1.5889336499   -2.1795902761   -0.3016661999
 C   -3.0361328435   -1.6985682959   -0.6609093459
 C   -4.0864219249   -1.3760411987    0.3920745883
 H    1.2191378992    1.7324754090    0.3241309300
 H   -0.2245482361    1.7557195217   -0.7002170645
 H   -0.3884947465    1.7442078069    1.0612363213
 H    0.7832056697   -0.5246703941   -0.6316472105
 H    0.2718347999   -0.4374492331    2.3878638747
 H    0.8636880345   -1.8396642540    1.4860697446
 H    1.8587147084   -0.3806061100    1.6090630510
 H   -1.8097439295   -0.3399867599    0.9625742507
 H   -2.3368775300    0.2767528000   -1.8029424000
 H   -1.6708277106   -2.4338275345   -2.5491302847
 H   -0.1605893561   -1.6374101613   -1.9912068552
 H   -1.3188392255   -3.0871979253    0.2431767059
 H   -3.4946779762   -2.3139261147   -1.4443097713
 H   -3.7178447517   -0.7595002925    1.2150854051
 H   -4.9290996989   -0.8449781620   -0.0649187951
 H   -4.4833077943   -2.3008480652    0.8259155623