22

 C   -0.3032605727    1.2765312666   -1.0942297202
 O   -0.0955545943   -0.0677637662   -0.7367968136
 C   -1.2978629001   -0.7676320140   -0.5060938266
 C   -0.9989432530   -2.2026633064   -0.1101281249
 C    0.2133225611   -2.8808621623   -0.7063378045
 C    0.1903458634   -2.4805556336    0.7573564629
 N   -2.2522722178   -2.8780685741    0.1559831088
 C   -2.8731549781   -3.6385877985   -0.9278931285
 C   -2.3057444969   -4.3270090370    0.2637826140
 H    0.6789031870    1.7308559339   -1.2462798528
 H   -0.8850138117    1.3664628498   -2.0253764085
 H   -0.8344034026    1.8314946109   -0.3049963741
 H   -1.8811758871   -0.2897275840    0.2977496600
 H   -1.9266760261   -0.7587400924   -1.4138365998
 H    0.1672669749   -3.9374796563   -0.9469981881
 H    0.8258912292   -2.2907300615   -1.3769661151
 H    0.8012919323   -1.6387284645    1.0600761995
 H    0.0949097305   -3.2709405899    1.4944566502
 H   -3.9465850072   -3.5159671487   -1.0405270672
 H   -2.3180171590   -3.7363241024   -1.8590013411
 H   -1.3970316837   -4.9059171139    0.1161342702
 H   -2.9569446083   -4.7080502453    1.0457522293