22

 C    0.0328550739    1.6115891596    0.1127274864
 C    0.0815033094    0.0933209410    0.0503057560
 C    1.0906013983   -0.5950088383   -0.9121794537
 C    1.3430892268   -1.6737129967    0.1769339392
 C    2.7611614923   -2.1919094650    0.3731589563
 C    2.8653349176   -3.1496094159    1.5788315432
 C    4.2226283924   -3.6458329440    1.7927420821
 N    5.3025749054   -4.0276488706    1.9463658332
 C    0.7386851669   -0.6909390533    1.2216642050
 H    1.0298457869    2.0296693932    0.2934086334
 H   -0.3416696267    2.0372796364   -0.8249879957
 H   -0.6239028174    1.9562100388    0.9193992998
 H   -0.9239804051   -0.3028664995   -0.1326651372
 H    0.7300996817   -0.9272553253   -1.8889655340
 H    1.9793483078    0.0287731825   -1.0633179206
 H    0.6608410136   -2.5195249436    0.0258130112
 H    3.1007219948   -2.7138853557   -0.5290829764
 H    3.4471985369   -1.3504095465    0.5253712110
 H    2.5332260169   -2.6432952543    2.4926021113
 H    2.1997346691   -4.0094379937    1.4376186521
 H    1.5242353262   -0.0941212221    1.7009653271
 H    0.0854528023   -1.0947937169    1.9996194402