17

 C    0.2056284006    1.4287185896   -0.1530114948
 C    0.0275534183   -0.0552075141    0.0420331178
 C   -0.0958622354   -0.9609768007   -1.1960512973
 N   -0.4235333156   -2.2644575919   -0.5724659802
 C   -0.8095403934   -1.9565873117    0.6076908752
 C    0.1838219583   -2.2017393778    1.7327568714
 O    1.1420221414   -3.1557101704    1.5305955614
 C    0.3745609978   -0.6407698423    1.4271242397
 N   -1.0402453591   -0.5318245733    0.9386413504
 H    1.1871146611    1.6420339446   -0.5892127858
 H   -0.5591536351    1.8144548132   -0.8352651350
 H    0.1229135532    1.9732896308    0.7903509866
 H   -0.8708537862   -0.5612671751   -1.8664491895
 H    0.8223532034   -1.0812921183   -1.7800089802
 H   -0.1896341261   -2.2709627058    2.7573408652
 H    1.1987084595   -3.2649534804    0.5666414360
 H    0.7161154273    0.0307134037    2.2141571393