20

 C   -0.0782733595    1.4952856293    0.0242776880
 C   -0.2012965564   -0.0096716438    0.1778791077
 O    0.9177241373   -0.4718344413    0.9332808011
 C    0.9054079516   -1.8484967625    1.1497451794
 C    2.0565588137   -2.3624482859    2.0757084324
 C    2.9543380858   -1.3022468047    2.6935583864
 N    0.9979338731   -2.8922179092    2.9523533059
 C   -0.0654135394   -2.3899141900    2.2473587965
 O   -1.2537198763   -2.3818212822    2.4390226494
 H    0.8544057408    1.7572368394   -0.4836807311
 H   -0.9153611191    1.8842240613   -0.5629020769
 H   -0.0857931124    1.9832799467    1.0029573231
 H   -1.1332444291   -0.2827426442    0.6888145391
 H   -0.2059832643   -0.5044268519   -0.8075883607
 H    0.8182208073   -2.4077485448    0.2055405481
 H    2.6549117021   -3.1581186280    1.6171069063
 H    2.3616644573   -0.4880817993    3.1155825752
 H    3.5748955100   -1.7372431791    3.4839917128
 H    3.6189262522   -0.8819077914    1.9329929003
 H    1.0412012251   -3.3820604784    3.8345128770