16

 N    0.0483065308    1.3757432083   -0.1382517933
 C   -0.0081547640   -0.0150031924   -0.0676581548
 C   -1.2175179790   -0.7087886878    0.0050188815
 C   -1.1873829124   -2.1006489365    0.0061290594
 C    0.0206180004   -2.7873954508   -0.0653635168
 N    0.1244619732   -4.1874658788   -0.1334698612
 C    1.1672595519   -1.9800738226   -0.1291797851
 O    2.3710652192   -2.6104361345   -0.1860307159
 N    1.1666590835   -0.6592198447   -0.1268151380
 H    0.9575001209    1.7395198122    0.1098101755
 H   -0.7022924440    1.8582727751    0.3332885581
 H   -2.1594495950   -0.1744984059    0.0518475276
 H   -2.1159480182   -2.6619025397    0.0591892462
 H   -0.5864321149   -4.6689560642    0.4007912841
 H    1.0451648354   -4.5148975711    0.1265790193
 H    3.0353074621   -1.9093836268   -0.2160856366