18

 C    0.2453595649    1.4781515268    0.0666635373
 C   -0.0704808090   -0.0172319238   -0.0391399360
 C    0.6068549106   -0.6727242551   -1.2908951462
 C    1.8529658051   -1.2593477852   -0.6955061443
 C    3.0636523353   -1.7992745034   -0.9714392226
 O    3.6884121284   -2.1536441438    0.1859458924
 C    2.8468349820   -1.8352082119    1.2341101440
 C    1.7151579711   -1.2852383710    0.7258349769
 N    0.4671403812   -0.7891544516    1.1180816318
 H    1.3276996718    1.6461988335    0.0684622653
 H   -0.1868920342    2.0284980970   -0.7758326259
 H   -0.1694000935    1.9032298172    0.9875162405
 H   -1.1563174277   -0.1525883869   -0.0772317781
 H   -0.0395043107   -1.4522978563   -1.7108441195
 H    0.7804486932    0.0659710588   -2.0786172717
 H    3.6166011478   -1.9940303862   -1.8756105737
 H    3.2215818937   -2.0556039072    2.2178734762
 H    0.4437019600   -0.2802069308    1.9921125436