21

 C    0.0879732584    1.6105449623   -0.0760291897
 C   -0.0530310261    0.1206537277    0.0945770331
 O    1.1421566119   -0.6706838322   -0.0827593525
 C    0.5573708523   -0.6147943599    1.2067654475
 C    1.3048745965   -0.1090731953    2.4240427338
 C    0.3303863880    0.0183296707    3.5676799658
 C    0.8413945766   -1.3458998969    3.2027782004
 C    0.1302130369   -1.9032055106    1.9506718398
 C   -1.3360788124   -2.3089643735    2.0285831512
 H    0.9543171349    1.9858817225    0.4743295529
 H    0.2118687906    1.8698272737   -1.1327693614
 H   -0.8075275788    2.1229893557    0.2925001980
 H   -0.9309114715   -0.3217598736   -0.3807791960
 H    2.2733735464    0.3742752419    2.4123592451
 H    0.7401764906    0.4389583737    4.4805309422
 H   -0.7020225914    0.3013123240    3.3786174346
 H    1.4100908237   -1.9439915352    3.9040648629
 H    0.7237547488   -2.7221332597    1.5293659439
 H   -1.9571156884   -1.5117601775    2.4489330716
 H   -1.7289999637   -2.5509081300    1.0350756628
 H   -1.4617197432   -3.1964694280    2.6581978039