17

 O    0.0030870769    1.1946959555   -0.0617429672
 N    0.0104150225   -0.1997841738   -0.2012153424
 C   -1.1310262701   -0.6985984092    0.0507110405
 C   -2.4173791352   -0.0076993003    0.4285923108
 C   -3.4707214119   -1.1010855597    0.1577146236
 N   -2.7892640788   -2.3996642224    0.3209429001
 C   -1.3706026290   -2.2083503727   -0.0216817937
 C   -1.1110405491   -2.7478853475   -1.4285022422
 O   -0.1335467468   -3.3672721724   -1.7484149981
 H    0.9084419268    1.4281698239   -0.2952723807
 H   -2.3867595626    0.2666581309    1.4908570314
 H   -2.5628253620    0.9149575201   -0.1382257958
 H   -4.3394969002   -1.0458511090    0.8172866399
 H   -3.8402042066   -1.0150517262   -0.8711752024
 H   -2.8637613682   -2.7129192570    1.2807002068
 H   -0.7094323349   -2.7525387644    0.6579010599
 H   -1.9340491008   -2.5303901257   -2.1460205308