19

 C   -0.0419175205    1.5437995987   -0.0366998353
 C    1.5319810708    1.5662795178   -0.0510992272
 C    1.5431046269    0.0075327810   -0.0197811085
 C    1.5742564166   -0.7719509780    1.3228973533
 C    0.0077853360   -0.7942494980    1.3372901031
 C   -0.0079386528   -0.0146228968   -0.0055733129
 C    0.0212284826   -0.8441490253   -1.2964267030
 O    0.7481053386   -0.0865702820   -2.2680893019
 C    1.5140081507   -0.8228178330   -1.3101054517
 H   -0.5057033390    2.0022561957    0.8410370159
 H   -0.4986311159    1.9628540074   -0.9349869777
 H    1.9600358340    1.9979773614   -0.9574774352
 H    1.9984627395    2.0380192683    0.8181287880
 H    2.0550391827   -1.7530405604    1.2752827405
 H    2.0298306938   -0.2168392399    2.1467798451
 H   -0.4457246301   -1.7886197154    1.2984235830
 H   -0.4481410198   -0.2519670120    2.1694824903
 H   -0.6873318041   -1.5708615013   -1.6840664767
 H    2.2358174300   -1.5290947884   -1.7108517691