15

 N   -0.1330527726    1.4672657598    0.2242592117
 C   -0.0197243214    0.0589572963    0.0080090825
 C   -1.3419357065   -0.7097875496    0.0318672253
 N   -2.1190490360   -0.1945370868   -1.1193646961
 C   -1.1289006998   -1.2696589868   -1.3289033622
 C    0.2346667789   -0.5823111920   -1.4680013666
 C    0.4265235804    0.3466967127   -2.5641588858
 N    0.5992881572    1.1217260118   -3.4051786576
 H    0.7425211574    1.9490253192    0.0504125850
 H   -0.8324689112    1.8527977282   -0.4034349103
 H    0.7177450501   -0.3689072333    0.6911299736
 H   -1.8386310204   -1.1344863417    0.8947104560
 H   -3.0428077403   -0.6224166250   -1.0905916280
 H   -1.4120195316   -2.2285889204   -1.7423850973
 H    1.0615853458   -1.2954902723   -1.4333083003