16

 N   -0.2078119767    0.6229698169   -0.9861147656
 C   -0.2286966939   -0.3071134826    0.0235568779
 C    1.1339723268   -0.9136573984    0.3250792868
 O    1.9223258035   -1.1139102379   -0.8429437491
 N   -1.2145363814   -0.6560364450    0.7618212281
 C   -2.4957400138    0.0230350368    0.5626008577
 C   -3.1088738246   -0.1764627814   -0.7564714936
 C   -3.5809622652   -0.3362702000   -1.8520786705
 H    0.6084157288    0.5702948912   -1.5791267809
 H   -1.0766666562    0.8159078497   -1.4626501506
 H    1.7048034120   -0.2155442031    0.9475775695
 H    0.9787086259   -1.8322507162    0.8990362244
 H    1.5383783569   -1.8496156587   -1.3316950301
 H   -3.1903371826   -0.3445543292    1.3259723239
 H   -2.3926366852    1.1072885654    0.7346553902
 H   -4.0219643642   -0.4934620075   -2.8053538481