19

 C    0.1553904481    1.5926776301    0.0279218792
 C    0.0044213106    0.0702643171    0.0213744294
 C    0.6162690500   -0.6300385168   -1.2182957074
 C    1.1552003689   -1.9729277763   -0.7151142268
 O    1.3135556072   -2.9782233944   -1.3598039796
 C    1.3898632571   -1.8470877490    0.7760631816
 C    1.6886065464   -3.0502856317    1.6164014774
 O    2.1284648488   -0.6264656686    1.0419531273
 C    0.7089485484   -0.6055128153    1.1923417111
 H    1.2143879404    1.8695830134    0.0234759661
 H   -0.3179397801    2.0391398099   -0.8520352106
 H   -0.3071195978    2.0340586643    0.9170908910
 H   -1.0608717470   -0.1878103634    0.0858004801
 H   -0.0942169124   -0.7885442656   -2.0317277862
 H    1.4547258058   -0.0513483520   -1.6216217752
 H    2.5950563294   -3.5468436155    1.2580096108
 H    1.8326206556   -2.7637857532    2.6606538785
 H    0.8698739539   -3.7732843939    1.5534737308
 H    0.3491423067   -0.4720916191    2.2108467226