17

 O    0.0651406232   -0.0157535795    0.1813544870
 C    0.0337114823    1.1970614663    0.0627843470
 N   -1.1444665483    1.8966074033   -0.0074316834
 C   -1.2271889218    3.2927468138   -0.1102512107
 C   -0.1623156969    4.0470887865   -0.3782524374
 C    1.1811575760    3.4149638955   -0.6295797287
 C    1.2821466480    2.0441610024    0.0221834908
 C    2.2107237332    1.7765567870    1.1682042407
 N    2.5300305163    1.3044698042   -0.1775858857
 H   -1.9833764647    1.3442288087    0.0840079461
 H   -2.2206089806    3.6962786143    0.0438192947
 H   -0.2735540148    5.1213498090   -0.4557889137
 H    1.3506511450    3.3093644994   -1.7121874370
 H    1.9932983338    4.0517695977   -0.2649229885
 H    2.8255950959    2.5947278554    1.5347370039
 H    1.9010847703    1.0498232435    1.9136213017
 H    2.2842176332    0.3153897226   -0.2395687568