20

 C    0.0901449815    1.5568178048    0.0842745036
 C    0.0453349487    0.0328110825   -0.0551514237
 C    0.6704504035   -0.5347197687   -1.3428653802
 C    0.6044046719   -2.0661552783   -1.3156843679
 C    0.0080575122    0.0382256201   -2.6018602487
 O    2.0690241611   -0.1024269946   -1.2596094037
 C    2.9393078327   -0.4035583437   -2.2326288957
 O    4.0883611316   -0.0689088060   -2.1905243520
 H    1.1140768173    1.9253676821   -0.0149129687
 H   -0.5283570371    2.0572297163   -0.6669563189
 H   -0.2848209636    1.8564505259    1.0672805706
 H    0.5723612266   -0.4235053764    0.7903063982
 H   -0.9917473628   -0.3200686494   -0.0054854423
 H   -0.4378936901   -2.3940901990   -1.2570244321
 H    1.0402367047   -2.5116004553   -2.2143210523
 H    1.1372041299   -2.4553801125   -0.4436649398
 H    0.1849309723    1.1129715327   -2.6830575137
 H    0.3784049378   -0.4399019511   -3.5128018339
 H   -1.0724647032   -0.1301997883   -2.5593413827
 H    2.5050451052   -0.9818524212   -3.0668076561