22

 C    1.1388853942    1.8912816378   -0.1866093292
 C    0.4082172455    0.5476860856   -0.2970448122
 C    1.0535754303   -0.4788474143   -1.2562693349
 C    0.8823048418   -1.9094875017   -0.7381033474
 C    1.4979402901   -2.9507699526   -1.6919122312
 C    1.3378781770   -4.3182950540   -1.2056632622
 N    1.2046335319   -5.3945021911   -0.8058556608
 O    0.4785808596   -0.4705479372   -2.5579109222
 C    0.7767886534    0.6482256400   -3.3615142298
 H    2.1649433771    1.7502031054    0.1706032328
 H    1.1941212699    2.4164306250   -1.1441350994
 H    0.6314986965    2.5516575462    0.5233935840
 H    0.3518395212    0.1024792141    0.7033144223
 H   -0.6280884908    0.6936762914   -0.6236970255
 H    2.1335106725   -0.2595817924   -1.3453540438
 H    1.3478138220   -1.9902250821    0.2489096111
 H   -0.1853906609   -2.1190659715   -0.6110660137
 H    1.0314549864   -2.8597629914   -2.6764964014
 H    2.5684052327   -2.7544226176   -1.8281775412
 H    0.2555728393    1.5561685664   -3.0286313492
 H    1.8576510529    0.8564206341   -3.3854883455
 H    0.4418517475    0.4122224001   -4.3751031707