22

 C    0.1809721667    1.5592322544   -0.0295604307
 C    0.0505784112    0.0349412082   -0.0227717993
 C   -1.4041024759   -0.4641137127    0.0503958406
 C   -1.4958513666   -1.9875590959   -0.1241165718
 N   -2.0370942266   -0.0462594866    1.2968201955
 C   -3.3699049390    0.5010548258    1.5810987097
 C   -3.0284401922    0.3782665683    3.0919271111
 C   -1.6900894813   -0.2322524263    2.6141568641
 O   -0.7108077498   -0.7057385779    3.1352960057
 H    1.2311022704    1.8609968575   -0.0840029179
 H   -0.3369219708    2.0013479218   -0.8887839145
 H   -0.2428398734    1.9970387677    0.8791031601
 H    0.4997377715   -0.3796581304   -0.9331431079
 H    0.6005404274   -0.3852931583    0.8253924821
 H   -1.9777317851    0.0207046414   -0.7506563221
 H   -1.0733952429   -2.2927699686   -1.0865704076
 H   -0.9420726998   -2.4921077932    0.6729745299
 H   -2.5361139023   -2.3251012450   -0.0858549302
 H   -3.5208310371    1.5191900144    1.2068016044
 H   -4.1957656419   -0.1351737419    1.2428797108
 H   -2.9290835739    1.3216731945    3.6313597933
 H   -3.6552529084   -0.3074908273    3.6643909645