16

 O   -0.0090514576   -0.0038749616    0.4559730580
 C   -0.0088560620    1.1348436818    0.0519384268
 C    1.2197977267    1.9561721979   -0.0509516409
 C    1.4939711737    2.9396417582   -1.1993680983
 C    0.3667276173    3.4151344602   -2.1010533820
 C   -0.6193289922    4.1336229269   -1.1606762605
 O   -1.7162139543    4.5580508654   -1.4328143441
 N   -0.0219642803    4.1781657125    0.0832013831
 C    1.2190885147    3.4760177946    0.1695945098
 H   -0.9553418331    1.6247873794   -0.2581134848
 H    2.1016494045    1.4382584519    0.3125218895
 H    2.5037266028    2.9270537695   -1.5891441659
 H    0.7356642562    4.1284202726   -2.8448010235
 H   -0.1593384147    2.6276406150   -2.6458577591
 H   -0.5640614768    4.4486412614    0.8891354552
 H    1.9848510650    3.9075339143    0.8038532269