18

 C   -0.0280997426    1.4853030377   -0.0462006206
 C    1.4751870898    1.8288462273    0.0497981376
 O    1.8838251553    1.7774085669    1.4233571297
 C    1.3268238679    0.6401153018    2.0782225260
 C    0.9739470073   -0.4429119843    1.0643864578
 C    2.0322456168   -0.6560724955   -0.0090129853
 C    2.0912537260    0.6766938227   -0.7554645224
 C    1.0052141357   -0.3311760245   -1.0511365412
 N   -0.0176782846    0.0029510753   -0.0215257542
 H   -0.6131769071    1.9072091361    0.7751157280
 H   -0.4643862042    1.8134380246   -0.9947622867
 H    1.7575916238    2.8194873809   -0.3101896861
 H    2.0747083890    0.2620341163    2.7855213712
 H    0.4364084609    0.9251762602    2.6611512078
 H    0.6144339944   -1.3521805419    1.5514172024
 H    2.8382611843   -1.3790233483   -0.0181580475
 H    2.9124695972    0.8338896901   -1.4429830401
 H    0.7559812602   -0.7696143055   -2.0084697965