12

 O   -0.0342194100   -0.0350846260    0.0038878283
 C    0.0157948558    1.1760649675    0.0090861884
 N   -1.1271499875    1.9685928931    0.0282429550
 N   -1.1938649073    3.3069545322    0.0359316497
 C   -0.0415965962    3.9147139790    0.0238561894
 N    1.1890080484    3.3256367897    0.0047564814
 C    1.2389411310    2.0198003901   -0.0024964770
 C    2.4916318453    1.3504185081   -0.0222920113
 C    3.5433746369    0.7658813199   -0.0390255859
 H   -2.0175715865    1.4859737199    0.0375644374
 H   -0.0689576491    4.9972764899    0.0297097424
 H    4.4728358793    0.2509457666   -0.0538163579