18

 C   -0.1457786330    1.5315788240    0.1157527842
 C    0.0380067180    0.0511961629   -0.1646714856
 C    0.9612187156   -0.4785495720   -1.2517399851
 C    2.3572499773   -0.6142789832   -0.6034353341
 C    1.2847905521   -1.6417031204   -0.3722458800
 N    0.8104161094   -0.8071798504    0.8420681553
 C    2.1934116513   -0.1612433370    0.8410179890
 C    3.0909625752   -0.9239921901    1.7871240047
 O    3.9220424216   -0.4084503478    2.4889679022
 H    0.7870453144    2.0967879953    0.0533472893
 H   -0.8401928670    1.9602607641   -0.6143469042
 H   -0.5750936713    1.6775876365    1.1127654093
 H   -0.9424875741   -0.4291491929   -0.2498060226
 H    0.8565163204   -0.4640446920   -2.3299236393
 H    3.2542716052   -0.6934746107   -1.2047804817
 H    1.2129502241   -2.7144686945   -0.4715205802
 H    2.2309680428    0.8997085947    1.0962976087
 H    2.9327498479   -2.0253448566    1.7808630702