17

 C   -0.7855515315    1.3300684229    0.2767879766
 C   -0.0867980105   -0.0160800445    0.2718810901
 O    0.9156926942   -0.1665381343   -0.7705124241
 C    1.9735092504   -0.5261530358    0.1368840552
 C    3.2397328333    0.3287992650    0.0838689259
 C    3.2059376783    1.5572634851   -0.7948786136
 O    4.1905589452   -0.0012007099    0.7495677909
 C    1.0049756921   -0.2765907438    1.3213304110
 O    1.0814195029   -0.2553268229    2.5073067223
 H   -0.0687093805    2.1501297354    0.3716565898
 H   -1.3485680474    1.4645828205   -0.6511549513
 H   -1.4843587346    1.3793159877    1.1172005901
 H   -0.8168739131   -0.8367064717    0.2281722475
 H    2.2669849132   -1.5810829805    0.0580236766
 H    2.9083119351    1.2907460550   -1.8134501856
 H    2.4508899150    2.2621169316   -0.4291752573
 H    4.1870359478    2.0327864801   -0.7895996840