21

 C    0.6767853070    1.5085833428   -0.1278260744
 N    0.1878509946    0.1451292904    0.0413240555
 C    0.8192942936   -0.5917638099    1.1343729305
 C    0.6802160333   -2.1031562237    0.8806884255
 O    0.8922024104   -2.3943442298   -0.4930801195
 C   -1.2798905483    0.0855036029    0.0421741698
 C   -1.8233094932    0.0120708183   -1.3925164838
 N   -1.6581293549   -1.2056609830   -1.9871356381
 O   -2.3599830105    0.9580479170   -1.9363344034
 H    1.7589111922    1.4987591405   -0.2875613646
 H    0.1999088192    1.9566978682   -1.0034293164
 H    0.4582782277    2.1511515457    0.7429548364
 H    1.8817241335   -0.3248400553    1.1286683789
 H    0.4209177978   -0.3327935562    2.1306575597
 H    1.4135837148   -2.6471943026    1.4883478636
 H   -0.3146447964   -2.4587372281    1.1870783981
 H    0.8942230650   -1.5188170126   -0.9173509767
 H   -1.6055815680   -0.8007797061    0.5933760024
 H   -1.7260822932    0.9669919909    0.5214975231
 H   -1.0431995053   -1.9012944397   -1.5873069732
 H   -1.8696824493   -1.2694768299   -2.9704310732