21

 C    0.2809483593    1.5810776627   -0.0811802499
 C    0.0502253225    0.0833270398    0.0602245237
 O    0.5817621170   -0.5709129233   -1.0936281126
 C    1.1245248426   -1.8649250388   -0.7668390595
 C    0.0786345778   -2.9580516350   -1.0224353581
 C    2.3755708755   -2.0532613533   -1.6215651469
 C    1.4242851445   -1.7666472763    0.7242142102
 O    2.1810836872   -0.6029546020    1.0736971840
 C    0.7561387558   -0.5720307378    1.2326179579
 H    1.3535142840    1.7900137720   -0.0875802908
 H   -0.1534142346    1.9426596257   -1.0168104559
 H   -0.1844271066    2.1237689113    0.7479502402
 H   -1.0300207938   -0.1232245886    0.1561372578
 H   -0.2247381846   -2.9401305260   -2.0727387413
 H    0.4801533617   -3.9516801671   -0.7967844709
 H   -0.8133674671   -2.8036549475   -0.4069968814
 H    3.1095131457   -1.2833351868   -1.3747464873
 H    2.8206920471   -3.0384928572   -1.4498069576
 H    2.1220574310   -1.9698095813   -2.6821275666
 H    1.6124608740   -2.6599705074    1.3144133046
 H    0.3851278009   -0.4623760831    2.2482463803