21

 C   -0.0275019930    1.4960768377    0.0167047267
 C   -0.0208701367   -0.0151111321   -0.0099961430
 C   -0.7313685991   -0.7094255135   -1.1853254319
 C   -1.3733974348   -1.9326121051   -0.5678389364
 C   -1.1666500993   -1.9892868746    0.7507275090
 C   -0.3222353110   -0.8585092904    1.2274401297
 C    1.1033778284   -0.7582210658    0.6725718648
 C    1.8581776771   -1.9281001277    0.0903047650
 O    2.4887168323   -2.7093574429    1.0993353147
 H    0.5505097886    1.9118618206   -0.8174949638
 H   -1.0482704056    1.8885680318   -0.0599593570
 H    0.4102466489    1.8797463643    0.9436059425
 H   -1.4859016356   -0.0435011768   -1.6274208231
 H   -0.0444406557   -0.9680628650   -2.0017486186
 H   -1.9157885465   -2.6664664107   -1.1534464075
 H   -1.5386957652   -2.7663307537    1.4098424038
 H   -0.5195715708   -0.4054537836    2.1940506460
 H    1.7471270585   -0.1168364154    1.2716277455
 H    1.2038779624   -2.5482011003   -0.5362561506
 H    2.6713860039   -1.5624225178   -0.5467199334
 H    1.7934171533   -3.0108809690    1.6934732276