19

 C   -0.1343308336    1.4737421694    0.0703555478
 C   -0.0097368415   -0.0433911432    0.0852937274
 C    1.2630398716   -0.4625336167   -0.7412241765
 O    2.0159022679   -0.4928653635    0.5291815116
 C    0.7635571735   -0.7179346374    1.1946423258
 C   -0.1054012006   -0.3841761565    2.4305991465
 C   -1.0825543804   -1.2932567543    1.5505243756
 C    0.1458390615   -2.1505612458    1.2286243790
 O   -1.3079908176   -0.6349706924    0.2642129441
 H    0.8417643278    1.9439215846    0.2212715248
 H   -0.5237249723    1.7945072458   -0.9022577583
 H   -0.8275994681    1.8292659476    0.8347106968
 H    1.2387128351   -1.4480719732   -1.2137961646
 H    1.6731235924    0.2855528815   -1.4231653172
 H    0.1470392964   -0.9015614711    3.3575508228
 H   -0.3641625522    0.6568501255    2.6206994704
 H   -2.0208890490   -1.6738835223    1.9456390699
 H    0.0950008761   -2.7390266230    0.3124142514
 H    0.5263180028   -2.7398799251    2.0645944526