17

 O    0.1366782454    1.3687122404   -0.1427213662
 C    0.0781896192   -0.0327334261   -0.0442452726
 C    1.1257668073   -0.7466707343   -0.8450024312
 C    1.2160050299   -0.7210170211    0.6701925328
 C   -1.3083800991   -0.6057707087    0.0377130752
 C   -2.4179776173    0.1313363762    0.7473514467
 C   -2.4337522467    0.0033388422   -0.7570621609
 H   -0.0100423532    1.7300900751    0.7381072053
 H    0.8560641887   -1.6765004765   -1.3337257737
 H    1.8221897081   -0.1244703664   -1.3946471020
 H    1.9792362182   -0.0872774394    1.1085814754
 H    1.0096504320   -1.6334105444    1.2198425243
 H   -1.3197051907   -1.6875387395    0.1382555782
 H   -3.1267246891   -0.4463229800    1.3301823457
 H   -2.2051849621    1.1132802527    1.1566582401
 H   -2.2015056536    0.8954783973   -1.3269873162
 H   -3.1610815269   -0.6573244275   -1.2153577112