20

 C    0.0322684670    1.5360496234   -0.0364237049
 C   -0.0531234833    0.0374390453   -0.0856829120
 C    0.3804003875   -0.8163209865   -1.2823841673
 C   -0.3385376671   -1.9540844713   -0.5155625436
 C    0.5846873112   -2.0654958935    0.7053338043
 N    0.3719021544   -0.6818961059    1.2487109170
 C   -1.1045582175   -0.7808317308    1.5852780872
 C   -1.3290539114   -0.8392618654    0.0786888908
 O   -2.5083556926   -0.5397705653   -0.5923222842
 H    1.0797268428    1.8561216928   -0.0276107698
 H   -0.4553925245    1.9760545023   -0.9121173212
 H   -0.4451332032    1.9433982774    0.8596405776
 H   -0.1699849082   -0.4962144139   -2.1708078371
 H    1.4424653139   -0.9379282318   -1.5170785107
 H   -0.7060725905   -2.8512727466   -1.0146614250
 H    0.2953679928   -2.8122048983    1.4490275918
 H    1.6335300070   -2.2283770487    0.4406784396
 H   -1.3718943791   -1.6187237828    2.2369809004
 H   -1.4628902119    0.1549982554    2.0210131115
 H   -3.0634925074   -1.3268022859   -0.6117811045