17

 N    0.0442253873    1.3198438069   -0.1652688011
 C   -0.0134901708   -0.0482548410   -0.0083176439
 N   -1.1222727280   -0.6830126533   -0.0132224112
 C   -1.0054438603   -2.1457973078    0.0177644217
 C    0.4520040116   -2.6113641229    0.0216300257
 O    1.1515049099   -1.8420518544    1.0528845694
 C    1.3083741192   -0.8024318557    0.0594904850
 C    1.2647135156   -1.8768101724   -1.0635487378
 O    2.4725712438   -2.5506089768   -1.3007444864
 H    0.7967092710    1.7944507857    0.3110494057
 H   -0.8523708982    1.7792101472   -0.0746609552
 H   -1.5166420646   -2.5218581459    0.9130351672
 H   -1.5342204889   -2.5683676662   -0.8473670874
 H    0.5957323507   -3.6896493209    0.1253082766
 H    2.2020588598   -0.1883216593    0.2045063413
 H    0.7473376358   -1.6017577446   -1.9911903470
 H    3.0272294062   -1.9928469986   -1.8557475626