17

 C   -0.3916214682    0.9760722410   -0.5083613580
 N    0.6473470844    1.4874865655    0.3905716795
 C    0.4393498362    0.0229482995    0.2690238396
 C   -0.1040056993   -0.6610622903    1.4623946699
 N   -1.1981055565   -0.4115578968    2.0673893721
 C   -1.2905772157   -1.3601938494    3.1504876278
 C   -1.3662631104   -2.8200120056    2.7433099295
 C   -0.0327296930   -2.2053717147    3.0534277547
 O    0.6848352885   -1.6665808234    1.9538959046
 H   -1.4060632242    1.1577879565   -0.1689510332
 H   -0.2371435066    1.0220445718   -1.5831598681
 H    1.4749110261    1.7432301123   -0.1432631387
 H    1.1951389266   -0.5528510313   -0.2557539568
 H   -1.7522911174   -1.0181889165    4.0685307993
 H   -1.7501291926   -3.5148710037    3.4822993237
 H   -1.6131165722   -3.0524486842    1.7126866263
 H    0.6102903442   -2.5439386007    3.8550515278