13

 N    0.2734874136    0.7767365994    0.9197732903
 C   -0.0458239816    0.1319749916   -0.2336337579
 O    0.6243692324    0.1299841501   -1.2426175018
 C   -1.3455100066   -0.6674581947   -0.1350508329
 C   -1.4217443119   -1.7356630559    0.8923946263
 O   -2.0906686197   -0.4955551033    1.0903995364
 C   -2.1128353556   -0.7772827534   -1.3463576999
 C   -2.7643030813   -0.8607406672   -2.3513339439
 H    1.0792193439    1.3800363917    0.9157782391
 H   -0.4224348393    0.8709485750    1.6413760662
 H   -2.0671947193   -2.5903779286    0.7039784059
 H   -0.5564806409   -1.9121057449    1.5284292232
 H   -3.3329467138   -0.9316733797   -3.2456865710