19

 C   -0.0957833891    1.4389705818   -0.0751514129
 N   -0.0133737759   -0.0180357540   -0.0274848638
 C    0.1017239339   -0.6139563052    1.2258225099
 O    0.1202421018    0.0064874978    2.2647431246
 C   -0.0524264641   -0.8157522320   -1.1902505992
 N   -0.1417067334   -2.0822699412   -1.0670271378
 C    0.0268443464   -0.0415553875   -2.4915066183
 C    0.0050585130   -0.9018915532   -3.7484225876
 O    0.0771331448   -0.0106286661   -4.8477241853
 H    0.7428124193    1.8752435674   -0.6250204190
 H   -1.0318880307    1.7720048071   -0.5327226873
 H   -0.0621614321    1.7844895386    0.9573287159
 H    0.1784169712   -1.7048058375    1.1533483559
 H   -0.1296267601   -2.5468550260   -1.9698253708
 H   -0.8031478483    0.6715161525   -2.5518161823
 H    0.9394813043    0.5657484314   -2.5035702166
 H    0.8564640885   -1.6004890201   -3.7416751070
 H   -0.9182208416   -1.5015551989   -3.7775794231
 H    0.0657431821   -0.5282465949   -5.6580306052