14

 C    0.0070429168    1.3837811176    0.0096560702
 C    1.3240742244    1.8294708384   -0.0004470182
 N    2.1221709896    0.7334393869   -0.0138926536
 N    3.4638725181    0.7174760949   -0.0267121991
 C    3.9839241779   -0.4849729756   -0.0381385872
 C    3.2056091649   -1.6764382024   -0.0371827940
 N    1.8922089467   -1.6529362850   -0.0245900046
 C    1.3146541791   -0.4450013303   -0.0125950143
 C   -0.0076490970   -0.0223968638    0.0023022631
 H   -0.8573381316    2.0305393424    0.0213296586
 H    1.7522673521    2.8179627130    0.0007906385
 H    5.0678983351   -0.5231919970   -0.0486373211
 H    3.6959835803   -2.6454121131   -0.0470548081
 H   -0.8652799764   -0.6752259361    0.0069759496