17

 C    0.5505649448    1.5101975596    0.1372901035
 C   -0.3515745901    0.3001518663    0.0050257591
 O   -1.1162026430   -0.0449501331    0.8742553774
 C   -0.2402115815   -0.4366485317   -1.3106309532
 N   -0.6913556563   -1.8291957154   -1.3613396716
 C   -1.4807797029   -0.8376602253   -2.0960360253
 C   -2.8913162320   -0.5833589291   -1.6053756283
 C   -1.3111524757   -0.7895805897   -3.5356250766
 N   -1.1819990360   -0.7670896702   -4.6851084733
 H    1.6023687188    1.2037011090    0.0910679417
 H    0.3865742758    2.2038446132   -0.6956894571
 H    0.3570593376    2.0141940979    1.0842404127
 H    0.6155632865   -0.1570269701   -1.9208205996
 H   -0.0984990136   -2.3692543396   -1.9872027391
 H   -2.9102368329   -0.6373042448   -0.5174488037
 H   -3.2432816357    0.3995835820   -1.9311477214
 H   -3.5640136538   -1.3424895790   -2.0143615153