14

 O    0.2908827698    1.3387904047    0.2279126816
 C    0.1537743097   -0.0094213826    0.0906167873
 C    0.9041336692   -1.0869328481    0.8372159020
 C   -0.3438874912   -2.0126041669    0.7602446282
 C   -1.1136654696   -0.9434142082    0.0215078312
 C   -0.2787663252   -1.9613945217   -0.7737806634
 C   -0.7064856168   -2.9042822406   -1.7394629822
 N   -1.0470590534   -3.6733208932   -2.5363759192
 C    0.9675367927   -1.0303065383   -0.6962241950
 H    0.1316941900    1.7590359906   -0.6259320793
 H    1.7084393715   -1.0048376123    1.5535545808
 H   -0.7023903514   -2.8187786275    1.3856765200
 H   -2.1795652395   -0.7719054887   -0.0443720182
 H    1.8224786343   -0.9149596472   -1.3469761439