17

 C    0.1055453962   -1.2353786002    0.0747090874
 C    0.0534874771   -0.0355963777    0.0084900650
 C   -0.0477467841    1.4018968090   -0.0521407481
 C   -1.2138276428    2.1086563604    0.6999423101
 N   -1.3854030552    3.1242548284   -0.3910357364
 C   -0.2987990098    4.1631275373   -0.3025689048
 C    0.7389662640    3.2035684030   -0.9255255140
 N    1.2348220561    2.1519213628   -0.0122692216
 C   -0.4670130383    2.2911376826   -1.2765726868
 H    0.1636164988   -2.2945119417    0.1262559686
 H   -2.1057910142    1.4776965216    0.7626353842
 H   -0.9899523177    2.5154767613    1.6922446076
 H   -0.5472644858    5.0039510615   -0.9595601554
 H   -0.1011117319    4.5469264048    0.7046344314
 H    1.4869169862    3.5945337085   -1.6191508932
 H    1.5386383384    2.4553434104    0.9107006070
 H   -0.7987051868    1.9454948781   -2.2524973508