13

 N   -0.0508617435    1.2249503505   -0.3043861815
 C   -0.0244236384   -0.0215590854   -0.0555175356
 C    1.2084215561   -0.8323113551    0.1510378378
 N    1.5148545720   -1.9122172018   -0.4573531826
 C    0.6540878443   -2.5147663548   -1.3616968269
 C   -0.6884808096   -2.5091517607   -1.3803970206
 O   -1.5536044537   -1.9072210385   -0.5181094838
 C   -1.3545026173   -0.7213915532    0.1513665992
 O   -2.2050159943   -0.3188724794    0.8813074058
 H    0.9013601818    1.6007900817   -0.3610238500
 H    1.9265528988   -0.4275575028    0.8676010814
 H    1.1425030896   -3.1402666286   -2.1015235888
 H   -1.2319210858   -3.1109614119   -2.0991162644