21

 C    0.0888545430    1.4805765867    0.2315683980
 C    0.0413303625    0.0281449397    0.1545835773
 C    0.0099930191   -1.1749757259    0.0990291370
 C   -0.0180742097   -2.6239125184    0.0154423290
 O    0.3064818206   -3.2879003333    1.2635392249
 C   -0.8465269742   -4.1590682637    1.1630061746
 C   -1.6255666654   -4.2322154547    2.4606492105
 C   -1.3941846757   -3.3618317513   -0.0544639580
 C   -2.6440905421   -2.5156668042    0.1364337616
 H    0.8101514090    1.8959295802   -0.4807490786
 H   -0.8888935064    1.9242634973    0.0136839879
 H    0.3851010518    1.8093804690    1.2337771565
 H    0.6667862974   -2.9556094555   -0.7785453327
 H   -0.5282183538   -5.1716653299    0.8724615835
 H   -1.9649949791   -3.2448969533    2.7829395914
 H   -2.4963498768   -4.8882119967    2.3531883686
 H   -0.9869408894   -4.6446422508    3.2482868850
 H   -1.4945823077   -3.9720364468   -0.9555947842
 H   -2.5588240577   -1.8487330329    0.9979426862
 H   -2.8177219033   -1.8893762035   -0.7441362834
 H   -3.5255243820   -3.1499609620    0.2770089351