20

 C   -0.0312232779    1.5628469273    0.2061533666
 C    0.0238221686    0.0617900272   -0.0469671730
 C    1.1842333393   -0.4748405233   -0.9397099396
 C    1.3215521135   -1.6673517907    0.0369109642
 C    0.5626905563   -0.8421894502    1.1036647991
 O    0.6402799726   -2.8475138268   -0.3824789570
 C   -0.6618406419   -2.7903067632   -0.7683167854
 N   -1.5062437428   -1.8585838892   -0.8576536104
 C   -1.3311914494   -0.4535242867   -0.5517669481
 H    0.9330513856    1.9363548274    0.5665758376
 H   -0.2804011363    2.1121175799   -0.7091622386
 H   -0.7877975179    1.8121770806    0.9591612687
 H    0.9643195561   -0.7131985269   -1.9834785904
 H    2.0677960228    0.1684947514   -0.8974626489
 H    2.3274906825   -2.0106255250    0.2811791480
 H    1.2611934997   -0.3082229283    1.7542964448
 H   -0.1623734846   -1.3791096739    1.7206162748
 H   -0.9646403827   -3.8013592851   -1.0421477439
 H   -2.1027056746   -0.1933846318    0.1877017788
 H   -1.6011871590    0.1030907474   -1.4611629374