20

 C    0.1779711972    1.1209936450    0.8521431373
 C   -0.2861727390    0.4482696384   -0.4401749733
 O    0.6259768682   -0.5600547642   -0.8638821298
 C   -1.7075616535   -0.1219132856   -0.2994899916
 N   -2.3049619295   -0.6659167055   -1.5499082666
 C   -2.5392409457   -2.0193654047   -0.9617957872
 C   -1.9309631480   -3.1775637631   -1.7411426630
 C   -1.7704389062   -1.5463391675    0.2809206631
 O   -1.3054079698   -2.0802008333    1.2467959165
 H    1.2070164938    1.4727530622    0.7414568503
 H   -0.4562070649    1.9764859290    1.1065944036
 H    0.1387830023    0.4132795237    1.6884171909
 H   -0.3012474370    1.1743181910   -1.2610924873
 H    0.8049146347   -1.1253730128   -0.1030254455
 H   -2.3485361317    0.5857549933    0.2455529549
 H   -3.1556525456   -0.1919715042   -1.8288625339
 H   -3.5918478246   -2.2237100592   -0.7143719358
 H   -0.8874708033   -2.9523539188   -1.9750259321
 H   -1.9782050423   -4.0988724842   -1.1520786500
 H   -2.4697392450   -3.3363988696   -2.6800125705