25

 C    0.1248181688    1.5755247857    0.0042382669
 C    0.0233900966    0.0491351411    0.0650006994
 C   -1.4162236170   -0.4660266225   -0.0657730404
 C   -1.5127067276   -1.9844029739   -0.0039313614
 C   -1.2379662770   -2.7391990002    1.3275960843
 C   -2.3447427837   -3.7543266197    0.9372401518
 C   -2.8880415404   -2.7104339687   -0.0880478679
 C   -4.0810277546   -1.9198639422    0.4415939161
 O   -3.1370199204   -3.1732606771   -1.4044454601
 H    1.1621201908    1.9124102718    0.0979636889
 H   -0.2659953300    1.9604052354   -0.9443798485
 H   -0.4509361848    2.0432527267    0.8108946736
 H    0.6369954989   -0.3918766575   -0.7316468830
 H    0.4519152450   -0.3090916329    1.0100551122
 H   -2.0295988955   -0.0184164184    0.7282228213
 H   -1.8402240363   -0.1152260226   -1.0168306885
 H   -0.8912870146   -2.4219239100   -0.7942981308
 H   -0.2314480419   -3.1303659039    1.4878909524
 H   -1.5177128558   -2.1394031922    2.2000135369
 H   -1.9367468556   -4.6190409419    0.4080022795
 H   -3.0255859090   -4.0986775913    1.7210750128
 H   -3.8966155195   -1.5299571828    1.4471930790
 H   -4.3182642160   -1.0797047560   -0.2177798412
 H   -4.9644907314   -2.5685790319    0.5029120483
 H   -4.0151635689   -3.5690948348   -1.4253389016