13

 C   -0.0791966902    1.5023168541    0.0986896375
 C    0.0018032756    0.0208636102   -0.0747031633
 C   -0.0764813370   -0.7711102994   -1.2048770104
 C    0.0727081128   -2.0891005840   -0.7196706608
 O    0.0614318336   -3.2081225490   -1.4747205005
 N    0.2310507586   -2.1375888160    0.5933232004
 N    0.1838753519   -0.8288537420    0.9657942327
 H    0.8447432049    1.9136961037    0.5212536519
 H   -0.2466457044    1.9831676788   -0.8669422009
 H   -0.9025795752    1.7895538943    0.7626312534
 H   -0.2191584954   -0.4510888351   -2.2232231354
 H    0.1842959581   -3.9530686136   -0.8730001154
 H    0.2824148768   -0.5990919520    1.9390025810