20

 C    0.0376308199    1.3676034802    0.1719228248
 O   -0.0741924932   -0.0148623206   -0.0896253057
 C    0.6296260463   -0.5469074860   -1.2144319985
 C   -0.0537672345   -0.1622540878   -2.5296259834
 C    2.1029872748   -0.1237884217   -1.2158475326
 O    2.7587750899   -0.5118604058   -0.0067120454
 C    2.4316730715   -1.7499268814    0.4487831524
 N    1.5211656069   -2.5294310010    0.0552130691
 C    0.6073286420   -2.0660790476   -0.9838328605
 H    1.0397624876    1.6459014138    0.5249241981
 H   -0.2180598655    1.9909943169   -0.6968574035
 H   -0.6781325580    1.5861971102    0.9683888333
 H   -0.0597431095    0.9215198876   -2.6813109191
 H    0.4562297030   -0.6140551873   -3.3861260764
 H   -1.0906003600   -0.5102017046   -2.5223488636
 H    2.6128443180   -0.5883002613   -2.0696487459
 H    2.2280968502    0.9581849096   -1.2948127599
 H    3.0962084624   -2.0286985778    1.2642644735
 H   -0.4087051954   -2.3531883927   -0.6932259554
 H    0.8326885935   -2.5953539027   -1.9181234213