21

 C   -0.0446964283    1.5127259270   -0.1096837947
 C    0.0787299786    0.0107036695    0.0438553331
 C    1.3333599016   -0.7926051730   -0.1662713785
 C    2.5877390130   -0.0542435467    0.3374788141
 C    1.9179828237    0.0465286450    1.7210779236
 O    2.6040176751   -0.3594002725    2.8952706242
 C    2.0947923011    0.9883067806    2.8315180877
 C    3.1176389750    2.0944071815    2.8178152768
 C    0.6911035075   -0.6956707658    1.2309635312
 H    0.8343831465    2.0426140333    0.2652749575
 H   -0.1748887445    1.7872934206   -1.1622835282
 H   -0.9137899470    1.8880043091    0.4416927965
 H   -0.7981749673   -0.5244948841   -0.3177415150
 H    1.3583084836   -1.6463313791   -0.8323141404
 H    3.4607917397   -0.7086983844    0.3939506073
 H    2.8672219773    0.8719637698   -0.1751643396
 H    1.2363358177    1.1559522062    3.4856250110
 H    3.9246601559    1.8717054129    2.1150126719
 H    2.6524587517    3.0432797746    2.5281128019
 H    3.5572521983    2.2272938731    3.8120898129
 H    0.1637134508   -1.4478763876    1.8053442268