16

 C    0.0104790994    1.4113423814    0.0575752786
 C    0.0049252861   -0.0418955666    0.0440082258
 C    0.0020319460   -1.2466034377    0.0364722070
 C   -0.0071565497   -2.6692272969    0.0156614676
 O    0.5349037523   -3.4460925797    1.1382323535
 C    0.0887539225   -4.4713478943    0.2122315473
 C   -1.1746703708   -3.6852337861   -0.2653553634
 N   -0.8463323581   -3.7439720383   -1.7250276792
 C    0.5004831711   -3.6842359349   -1.0735549146
 H    0.5874901222    1.8141145664   -0.7818925285
 H   -1.0063995585    1.8129712378   -0.0096735958
 H    0.4584767561    1.7897407213    0.9828130871
 H    0.2199793680   -5.5188030844    0.4829316812
 H   -2.1881189449   -3.6760022329    0.1360229782
 H   -1.0194329283   -4.6857635655   -2.0849764593
 H    1.4453773566   -3.6738377299   -1.6170021055