19

 C   -0.2732080934    1.3408348574    0.0769361898
 O    0.3855796383    0.1089013159   -0.1215537147
 C    0.8575711770   -0.4604813270    1.0536366086
 C   -0.0672953502   -1.3989100901    1.8841717304
 O   -0.0298167330   -2.3818884783    0.7881324105
 C    1.3806034329   -1.9134833002    0.9061112561
 C    2.4019673134   -2.4570572550   -0.0387368672
 C    1.2147816614   -2.0992063169    2.4354862626
 O    2.1315370465   -1.4396931169    3.2648156584
 H    0.3785704006    2.0743346493    0.5768765989
 H   -0.5466705928    1.7239074392   -0.9087564245
 H   -1.1873472627    1.2252688507    0.6777984928
 H    1.4839137570    0.2304946767    1.6314633843
 H   -1.0295970209   -1.2152315036    2.3621273511
 H    2.1834150158   -2.1312561193   -1.0594506623
 H    3.3961549881   -2.0939313250    0.2396328980
 H    2.4092281565   -3.5506207383   -0.0098099123
 H    1.0313974906   -3.1419620569    2.7135101997
 H    1.8838480749   -1.5995080317    4.1806121798