18

 C    0.0331653877    1.3705581638    0.2612364910
 C   -0.1065637761   -0.1127442055    0.0145441364
 C    1.0973746031   -0.9686899035   -0.2852818700
 N    0.3838545386   -1.0757645714    0.9732891004
 C    0.8548289343   -0.8150719083    2.2485454794
 O    0.3032712296   -0.0679254764    3.0263415190
 C    2.0799027548   -1.6174603540    2.6188932086
 C    3.0624279877   -1.0131859253    3.5401289451
 O    2.1617055531   -2.0126774458    3.9852821969
 H    1.0280854738    1.6213348562    0.6395449277
 H   -0.1302312922    1.9190816827   -0.6717861375
 H   -0.6964172943    1.7102085602    1.0003996216
 H   -1.0425516173   -0.4131097104   -0.4542336959
 H    1.0168468216   -1.8195758023   -0.9568905602
 H    2.0675004921   -0.4755624311   -0.2805267665
 H    2.4098729614   -2.3674757660    1.9025234651
 H    4.1078148556   -1.3105681178    3.4685749529
 H    2.8627823166   -0.0124072752    3.9173341063