17

 C   -0.2130157589    1.5018314213   -0.0267534771
 C    0.0067360966   -0.0125277353   -0.0731473955
 C    1.0272963267   -0.3890127758   -1.1399488419
 O    1.1990214035   -1.8093870854   -1.2852421209
 C    1.1938147664   -2.6411373354   -0.2197164975
 O    1.4290466821   -3.8054124460   -0.3581072828
 C    0.8277037183   -2.0496828221    1.1790140148
 O    0.8184307714   -2.7901465994    2.1246918662
 C    0.4979827425   -0.5726335712    1.2660586967
 H    0.7195126467    2.0297490748    0.2034027484
 H   -0.5873297721    1.8787884949   -0.9835426255
 H   -0.9421340264    1.7638483725    0.7454319102
 H   -0.9419326300   -0.5006118536   -0.3348822769
 H    0.7210652526   -0.0431788482   -2.1300520691
 H    2.0030439477    0.0622828427   -0.9121003427
 H    1.4249480875   -0.0544940854    1.5569270231
 H   -0.2135781546   -0.4237178184    2.0834417204