17

 C    0.0115239640    1.5583394267    0.1714384225
 O    1.3590531876    1.5520109581   -0.3606639517
 C    1.4443268680    0.1151755116   -0.4170981242
 C    1.0069838938   -0.4094851388   -1.8446220827
 C   -0.3436266092   -0.7262671631   -1.1869793088
 C   -1.8620622667   -0.7488309565   -0.8818690566
 C   -1.0336962885   -1.0936888235    0.4277218123
 O   -0.1992576704   -1.9826948579   -0.3885503599
 C   -0.0454765039    0.0409894275    0.1077094970
 H   -0.0018373365    1.9788173428    1.1856344924
 H   -0.6905792051    2.1256407814   -0.4552327109
 H    2.3545127771   -0.2753859242    0.0412861567
 H    1.0080493952    0.4109096532   -2.5641433164
 H    1.5154555658   -1.2844456655   -2.2542612068
 H   -2.3927715960    0.2059862607   -0.9229804870
 H   -2.4472558438   -1.5792476722   -1.2812537430
 H   -1.4133156513   -1.4831330302    1.3760086471