19

 C    0.4389075059    1.5044821745    0.0083715074
 N    0.0363068774    0.1019408128    0.0251680975
 C    0.3657458752   -0.6588225809    1.1969748828
 C   -0.1056491265   -0.1697431293    2.5444919334
 C   -0.6970183652   -1.4190225778    1.9524645975
 C   -0.3261729293   -0.4837156224   -1.1741194894
 C   -0.5288553061   -1.9914157117   -1.1752905781
 O   -0.4814707841    0.1699279179   -2.1911176234
 H    1.5149380358    1.6046823676    0.2000080133
 H    0.2084276515    1.9059351736   -0.9767493373
 H   -0.0981637085    2.0763304895    0.7710321341
 H    1.3594706438   -1.1087868779    1.1885341583
 H    0.5803487212   -0.2546407598    3.3793137598
 H   -0.7349230285    0.7121057171    2.5678477501
 H   -1.7130251560   -1.3525256702    1.5821214660
 H   -0.4300997367   -2.3823663389    2.3723197638
 H   -1.4075644959   -2.2774892689   -0.5910638559
 H   -0.6764764555   -2.2968141650   -2.2106464392
 H    0.3285630714   -2.5234780202   -0.7533621409