15

 C    0.0789646883    1.4682758977    0.0136389868
 C   -0.0568263037   -0.0170703461   -0.0010230174
 C   -1.2119116858   -0.7084768559   -0.1098798990
 C   -1.0829978870   -2.1352413816   -0.1004854693
 O   -2.2162069606   -2.8376259343   -0.2085816928
 N    0.0408754198   -2.7697572277    0.0040138369
 C    1.2096483404   -2.0461176340    0.1160070995
 N    2.3880364532   -2.4916878574    0.2280009586
 O    1.1246291941   -0.6388196918    0.1085105326
 H    0.7221588720    1.7938634818   -0.8103356537
 H   -0.8955780144    1.9496632610   -0.0769602217
 H    0.5579878156    1.7917271297    0.9434634192
 H   -2.1725898520   -0.2251643800   -0.1989713468
 H   -1.9608402694   -3.7726426475   -0.1863683309
 H    2.3469786294   -3.5090135939    0.2231863980