21

 C   -0.1246614638    1.5201398827   -0.0877446991
 C    0.1846738082    0.0258811608   -0.1384402274
 O    1.3224497526   -0.2220899659   -0.9874935366
 C    0.5664613662   -0.5420944304    1.2302025131
 C    0.5038685132   -2.0953795696    1.3231239323
 C   -0.9379447274   -2.5872244011    1.5385743346
 O    0.9674939833   -2.7134019396    0.1247252075
 C    1.3360965631   -2.5223643380    2.4652261693
 C    2.0112138278   -2.8560016414    3.4024487864
 H    0.7190299566    2.0736313596    0.3359085447
 H   -0.3175082034    1.9107852559   -1.0931127266
 H   -1.0125508283    1.7140990389    0.5224383621
 H   -0.6866471840   -0.5138351696   -0.5356193239
 H    1.0625558365   -0.0613530433   -1.9003625508
 H    1.5860522551   -0.2060252656    1.4464622838
 H   -0.0803398739   -0.1219425047    2.0060061950
 H   -1.5850200123   -2.2195742174    0.7367191746
 H   -0.9537935314   -3.6790842345    1.5175180524
 H   -1.3295613366   -2.2477251392    2.5013022788
 H    1.4683900968   -2.0516388461   -0.3741223218
 H    2.6136348217   -3.1635953113    4.2211100817