15

 C    0.8732969422    1.0181070271    0.0560418828
 C   -0.3093401672    0.0967443280   -0.1175747740
 O   -1.2178968313   -0.0002657506    0.6773303948
 C   -0.3256608514   -0.7404947510   -1.3494945592
 C   -1.4950342856   -1.4469975186   -1.9381849205
 C   -0.3046437173   -2.2647918687   -1.4532816120
 C    0.8523027177   -2.0221468347   -2.3876760152
 O    1.6708198749   -2.6530423174   -2.9668667036
 O    0.7271190234   -0.6318753574   -2.3485078725
 H    1.8076685380    0.4475829478    0.0272890078
 H    0.9216589136    1.7272488442   -0.7775552710
 H    0.7827661354    1.5525222325    1.0017294843
 H   -2.3649825856   -1.5103283061   -1.2933370344
 H   -1.6849925984   -1.3368578675   -3.0003420144
 H   -0.3737921185   -3.0132182575   -0.6776111328