16

 C    0.0792957850    1.5299351478   -0.2043663247
 C    0.0096506652    0.0423307229    0.0875361756
 N    1.2905508099   -0.7015430614    0.1047087896
 C    0.5136626286   -0.6050787654    1.3476814752
 C    1.1792781738    0.1436802963    2.4812115249
 O    2.2189010239   -0.6356015917    3.0435668636
 C   -1.1176535970   -0.6280945054   -0.5304727742
 N   -2.0113513549   -1.1585146507   -1.0388349426
 H    0.9934584673    1.9560108606    0.2090475673
 H    0.0849527571    1.6983024181   -1.2849903853
 H   -0.7841886055    2.0510133592    0.2189378925
 H    1.1823137875   -1.6159531592   -0.3267487059
 H   -0.0211933611   -1.4985197078    1.6633167141
 H    1.5493041216    1.1180690471    2.1370529778
 H    0.4574687590    0.3225513533    3.2844529022
 H    2.8566237496   -0.7955389438    2.3381594199