19

 C    0.0443913477    1.5482605289    0.0419826847
 C   -0.0438797445    0.0226473770   -0.0419054015
 C    0.6913086836   -0.5439130095   -1.2622310389
 O    2.0779723167   -0.2048339637   -1.1987178186
 C    2.8514084806   -1.3563052562   -1.2469386090
 N    4.1183880370   -1.3567045698   -1.2085155891
 C    1.9560814408   -2.4980774782   -1.3423295549
 C    0.6858401957   -2.0550948817   -1.3604941243
 N   -0.4920415179   -2.7375682620   -1.5204660234
 H    1.0882651614    1.8677561936    0.0876492406
 H   -0.4146170984    2.0197968152   -0.8339165741
 H   -0.4697608536    1.9214359331    0.9322436192
 H    0.3824149162   -0.4363380725    0.8575524912
 H   -1.0976473551   -0.2844628191   -0.0899899248
 H    0.2700191871   -0.1009763532   -2.1780211968
 H    4.4697461230   -0.4010040217   -1.1402433139
 H    2.3111791437   -3.5158702602   -1.3946523794
 H   -0.4629727155   -3.7346573087   -1.3719035126
 H   -1.3261712285   -2.3044450113   -1.1560229144