14

 O    0.0383691630    1.3884138927   -0.0804192077
 C   -0.0438391512    0.0111400672   -0.0038382346
 C   -0.4420330417   -0.8089768482   -1.2187354687
 C   -1.3184103080   -0.7745960975    0.0359947295
 C   -1.0457547680   -1.9096286479    0.9724942641
 C    0.2029776353   -1.8793115711    1.4684170467
 C    0.8903157806   -0.6593885314    0.9815533653
 O    1.9545191542   -0.1835929678    1.3140677231
 H    0.9270098794    1.6049674770    0.2392099166
 H   -0.7774114319   -0.2139679651   -2.0623849052
 H    0.0759110761   -1.7300456554   -1.4647581352
 H   -2.2958273901   -0.3116958508   -0.0156986203
 H   -1.7748481723   -2.6899603773    1.1623370682
 H    0.6650444746   -2.5984464845    2.1308173680