14

 O    0.0398251402    1.3609460640   -0.1127119556
 C    0.0620651342   -0.0002309802   -0.0524602886
 C    0.0237532634   -0.7643289882   -1.2048131154
 N    0.0429344328   -2.1065259824   -1.2058815667
 C    0.1017829125   -2.7243236981   -0.0376737154
 O    0.1213426125   -4.0784304394   -0.0400626318
 C    0.1451686243   -2.0639551747    1.1949591257
 C    0.1244656802   -0.6805157224    1.1760783379
 O    0.1606999718    0.1086991500    2.2859877938
 H    0.0742697696    1.6962708110    0.7911610095
 H   -0.0246846246   -0.2668053296   -2.1689741578
 H    0.0851903579   -4.3359433329   -0.9714595047
 H    0.1929594578   -2.6266298613    2.1206604921
 H    0.2028691074   -0.4375037557    3.0775531669