18

 C   -0.0611402115    1.5759712435    0.0040324651
 C    0.0381489958    0.0462579441    0.0168097788
 C    0.7891395131   -0.5587117319   -1.2030835332
 C    1.5362981142   -1.8046807902   -0.6664490452
 C    1.6230954323   -1.5264715811    0.8183742899
 C    2.4631679441   -2.2869231615    1.7447948749
 O    3.1723255914   -3.2144442645    1.4194181361
 C    0.8070768844   -0.5263128006    1.1823643145
 H    0.9347442967    2.0316274010   -0.0115551436
 H   -0.6030253436    1.9214695264   -0.8821681050
 H   -0.5906617325    1.9507818920    0.8861527207
 H   -0.9869221736   -0.3561580688    0.0596153271
 H    0.1203339692   -0.7857547869   -2.0369746080
 H    1.5178920935    0.1762129379   -1.5637650787
 H    0.9743217096   -2.7308997883   -0.8428609688
 H    2.5194500032   -1.9528336318   -1.1215122313
 H    2.4110834383   -1.9467850076    2.8039448644
 H    0.6790583656   -0.1749570516    2.2025107622