22

 C   -0.0380998152    1.6143153291   -0.0778310746
 C    0.0127853054    0.0837979942   -0.0472010407
 C   -1.3738729114   -0.5476820051    0.1290130599
 C   -1.4025476196   -2.0815223025    0.0882704795
 C   -0.6137415024   -2.7348125792    1.2235339867
 C   -2.8305061680   -2.6864057809   -0.1302135835
 C   -2.2905136429   -3.2177977191   -1.4786497359
 O   -2.7210031196   -3.8777936813   -2.3864219360
 N   -1.0692409329   -2.6369979604   -1.2453359053
 H    0.9601188172    2.0436747303   -0.2066944875
 H   -0.6650866026    1.9731574365   -0.9013409748
 H   -0.4552889455    2.0141516082    0.8529907706
 H    0.4599864450   -0.2827501560   -0.9806986537
 H    0.6787379671   -0.2388030357    0.7618794372
 H   -1.8085571278   -0.2170429360    1.0820389283
 H   -2.0359793103   -0.1750627198   -0.6626402448
 H   -0.9762017967   -2.3869867553    2.1965897521
 H   -0.7169873500   -3.8230962136    1.1861689403
 H    0.4531516147   -2.4985559110    1.1616945471
 H   -3.1177168830   -3.4701960341    0.5731333689
 H   -3.6393593793   -1.9591027436   -0.2223167056
 H   -0.1993403221   -2.6973175848   -1.7546326081