23

 C    0.0803654449    1.5635155033   -0.1623835019
 C    0.0233837778    0.0447641206    0.0184259631
 C   -1.3914524605   -0.5038595987   -0.1133645429
 O   -1.3469442832   -1.9053943254    0.0690267343
 C   -2.6085881173   -2.5524649716    0.1233437015
 C   -3.2810536694   -2.6694243739   -1.2472642150
 C   -2.3388239953   -3.9217425809    0.7111729534
 C   -2.5441126111   -4.2136499791    2.1315735037
 O   -3.4890507088   -4.6458286187    1.1460361273
 H    1.1051012491    1.9327321377   -0.0633027907
 H   -0.2855875886    1.8628355647   -1.1507701449
 H   -0.5314262277    2.0784434921    0.5866691673
 H    0.6584056502   -0.4509429128   -0.7247717862
 H    0.4156144337   -0.2378406570    1.0019899051
 H   -2.0521207953   -0.0439663847    0.6422086724
 H   -1.8035520214   -0.2436498804   -1.1015028227
 H   -3.2796603762   -2.0105045288    0.8106016296
 H   -2.6149680386   -3.1745961436   -1.9543481002
 H   -4.2018687772   -3.2523364053   -1.1546212394
 H   -3.5392042860   -1.6891539460   -1.6566406311
 H   -1.6071100825   -4.5133097082    0.1583963976
 H   -1.9741587202   -5.0079850769    2.6108054575
 H   -2.8920862364   -3.4238760464    2.7960151022