16

 O   -0.0194302129   -0.0121631352   -0.0408436422
 C    0.0135722044    1.1810320267    0.0135408944
 O   -1.1232346791    1.9339505127    0.0652430451
 C   -0.8379925154    3.3501051450    0.0561592302
 C   -0.0164417346    3.6788125831    1.3017422225
 N    1.2114879673    2.8566724759    1.2525681326
 C    1.2452023673    2.0833299750    0.0006700478
 C    1.1007069007    3.0101040213   -1.2203829019
 O   -0.1562367167    3.6976882757   -1.1155654307
 H   -1.8047673905    3.8511445770    0.0308111089
 H    0.2017870937    4.7521212852    1.3031374249
 H   -0.6031370059    3.4480168637    2.1991301669
 H    2.0372721989    3.4415728690    1.3075413470
 H    2.1460441393    1.4722910217   -0.0473791390
 H    1.9165335461    3.7449843885   -1.2324336646
 H    1.1158056474    2.4571636646   -2.1674410118