16

 N   -0.0254444442   -1.1294912769    0.0526669024
 C   -0.0254817033    0.0258140470    0.0549762823
 C    0.0125192291    1.4744864757    0.0155920709
 O   -0.8476090617    2.0536981269    0.9742848953
 C   -0.6450377266    3.4644558389    0.7515402797
 C    0.3706204930    3.4301477080   -0.3791699746
 C    1.3663107878    2.2599942913   -0.0686792181
 C    1.4454220513    1.9432115636   -1.5786443812
 C   -0.0468078307    2.2625322165   -1.3380605635
 H   -1.5951826575    3.9348019442    0.4743500690
 H   -0.2670592843    3.9324664113    1.6674675437
 H    0.7471218212    4.3632738631   -0.7964376918
 H    2.1598068664    2.2473158819    0.6783671513
 H    1.9948502290    2.6625457784   -2.1888518487
 H    1.6945976188    0.9170327728   -1.8580825224
 H   -0.8744069983    2.2527595274   -2.0471868043