18

 C   -0.1053481777   -1.2319561166   -0.1587416319
 C   -0.0625178480   -0.0341123806   -0.0561840551
 C    0.0224579330    1.4087900906    0.0568567525
 N   -0.2866293952    2.0093220626    1.4239915297
 C    0.7562421749    1.5174236027    2.3466255362
 C    1.1108125005    2.6153986822    1.4254305215
 C    1.4176092831    2.0759684678    0.0525621004
 C    2.7131591808    1.5691766889   -0.5011301556
 C    2.0485913000    2.7901218356   -1.1000687466
 H   -0.1613274709   -2.2887774508   -0.2485581142
 H   -0.6506013933    1.8824923364   -0.6642746585
 H    0.5401953907    1.7723464144    3.3796010880
 H    1.1706202159    0.5243518545    2.1940840094
 H    1.2816444021    3.6362285802    1.7529986481
 H    3.6119667742    1.7101941229    0.0903866376
 H    2.6844714134    0.6423401771   -1.0647955986
 H    1.5832658054    2.6954589973   -2.0763670886
 H    2.4970246611    3.7609828450   -0.9133457341