17

 C   -0.0108585744    1.4879764373    0.0471850684
 C    0.0256175186   -0.0272098490    0.0181287834
 O   -1.3356405112   -0.4903577019    0.0206840691
 C   -1.5124426802   -1.8178046159   -0.0026548193
 C   -2.6987079139   -2.4958491427   -0.0048203660
 C   -4.1169309360   -2.0636611083    0.0159822419
 O   -2.3936219757   -3.8020971979   -0.0321161004
 N   -0.9879275281   -3.9138148318   -0.0467789749
 N   -0.5035982890   -2.7411955470   -0.0290776925
 H    1.0092127201    1.8827050145    0.0460768606
 H   -0.5352368021    1.8809612693   -0.8282531006
 H   -0.5203012544    1.8473236775    0.9455935427
 H    0.5336550083   -0.4033365733   -0.8774458314
 H    0.5483894755   -0.4368930261    0.8901955016
 H   -4.6538398744   -2.4179659618   -0.8702626908
 H   -4.6381721528   -2.4517186940    0.8974280539
 H   -4.1607691905   -0.9728806492    0.0371861842