16

 C   -0.2002380321    1.5635881421    0.0168752057
 C    0.0561965993    0.0563224527    0.0331898093
 C    0.9200811495   -0.4556979999   -1.1760699881
 N    1.7111573914   -1.5994030600   -0.6544681303
 C    1.8249217372   -1.4121966515    0.7038581245
 N    2.5411848933   -1.8778833345    1.6815001241
 O    2.0125984486   -1.2086924166    2.8053406384
 N    0.9897676529   -0.3483564641    2.4581719125
 C    0.8749292268   -0.4699662548    1.1763989843
 H    0.7405391861    2.1211845710    0.0518568795
 H   -0.7398205941    1.8552729449   -0.8895442921
 H   -0.8009169918    1.8612444561    0.8801782201
 H   -0.9055526344   -0.4725295849    0.0227545309
 H    0.3004588856   -0.7735099509   -2.0179295623
 H    1.5775999613    0.3558076538   -1.5196918153
 H    2.5254819905   -1.8834047933   -1.1786120812