21

 C   -0.0323059230    1.4578853979   -0.0987795481
 C   -0.0278576644   -0.0324741450    0.0058400511
 C   -1.0407353644   -0.8808916056    0.1601233218
 C   -2.5386024114   -0.8563285902    0.0531716087
 C   -2.8750278567   -2.2976441332   -0.4715944945
 C   -1.5241679165   -2.9330682980   -0.8974879407
 C   -0.5409542863   -2.2976313599    0.0978566705
 O    0.8240443224   -2.2090617354   -0.2805587224
 C    1.2433532773   -0.8505397497   -0.1315898819
 H    0.5182565327    1.9198984311    0.7309744567
 H    0.4562414121    1.7938116863   -1.0223649954
 H   -1.0499213763    1.8574065661   -0.0840780086
 H   -3.0345424654   -0.6650896091    1.0115699505
 H   -2.8787298394   -0.0755206221   -0.6349845673
 H   -3.3223707401   -2.8862664801    0.3361286238
 H   -3.6007300347   -2.2828176019   -1.2882460786
 H   -1.5455968107   -4.0257462346   -0.8746784514
 H   -1.2439173233   -2.6156491168   -1.9077475070
 H   -0.6216366377   -2.8165649731    1.0708817150
 H    1.8271621171   -0.5545933307   -1.0159103860
 H    1.9108131888   -0.7480977161    0.7423491340