13

 C    0.1408403779   -1.1646466724   -0.0045162878
 C    0.0263726458    0.0344904833    0.0030938909
 C   -0.0956007698    1.4373814518    0.0118064897
 C   -1.2250851578    2.2520984997    0.0320207337
 C   -0.7910643076    3.5886284058    0.0324467872
 C    0.5983484668    3.5748680940    0.0124782203
 N    1.0023745736    2.2608124800    0.0001664628
 C    1.5244448728    4.6391387757    0.0044996675
 N    2.2935957227    5.5067732838   -0.0022081976
 H    0.2330781280   -2.2227266604   -0.0111115844
 H   -2.2426571252    1.8964847760    0.0448274823
 H   -1.4019791810    4.4769342707    0.0456115988
 H    1.9582934937    1.9459066220   -0.0151111633