22

 C    0.0038406785    1.5930138169    0.3350583464
 O   -0.0781165333    0.1858584537    0.4858086048
 C   -1.3439721856   -0.3125560445    0.2707954229
 C   -2.4129270829   -0.4264806452    1.3738642155
 N   -2.6582925768   -1.8298885648    0.9574789434
 C   -4.0047958278   -2.3310637242    0.7661420493
 C   -1.7180955846   -1.7162017364   -0.1509813555
 C   -1.9297889847   -0.5387829344   -1.1033327142
 C   -3.2371710247    0.0107514177   -1.6349138281
 H    1.0439980252    1.8735798426    0.5151885160
 H   -0.2843896605    1.9060079536   -0.6782674995
 H   -0.6360722743    2.1188505700    1.0582147173
 H   -1.9948798862   -0.3608536356    2.3845958826
 H   -3.2756028953    0.2492661238    1.2972195898
 H   -4.6371565424   -1.7350003554    0.0877601986
 H   -3.9503539672   -3.3485371661    0.3645440213
 H   -4.5112837054   -2.3868412394    1.7362623633
 H   -1.0845271084   -2.5554068559   -0.4212812711
 H   -1.1252859804   -0.5384280629   -1.8394554513
 H   -3.9757260654    0.1667194940   -0.8457026957
 H   -3.0752549245    0.9785531099   -2.1233331213
 H   -3.6819225633   -0.6630374174   -2.3753347645