16

 O    0.0385275529    1.3822141646   -0.0400061804
 C    0.0310774920   -0.0321355103    0.0075950800
 C   -1.3856276790   -0.5911474680   -0.2241688902
 C   -1.1752632226   -2.0329500994   -0.7215008806
 C   -0.5890633538   -1.2217258449   -1.8976827946
 O   -1.5852347323   -0.1709330536   -1.6141845010
 C    0.7052707842   -0.6442307086   -1.2885695391
 O    1.3299977795    0.3207434728   -2.0863333184
 H   -0.6107767690    1.6106845336   -0.7232443562
 H    0.5023153586   -0.3312615839    0.9451226795
 H   -2.1795252211   -0.2803719076    0.4552609883
 H   -0.5190592004   -2.7022450126   -0.1588805901
 H   -2.1178201929   -2.5173529760   -0.9756999780
 H   -0.5797199964   -1.5515725668   -2.9350226944
 H    1.4145279875   -1.4462307035   -1.0451223009
 H    1.2796196329    1.1486647441   -1.5858899341