21

 C   -0.0952959994    1.6005975793    0.2435150336
 C    0.0228023568    0.0871259446    0.0465082709
 C    0.7302479624   -0.6042727595    1.2178058988
 C    0.8463985403   -2.1385659059    1.0707623398
 C    1.6280200472   -2.8165464595    2.2073297899
 C    0.5164800968   -3.2167370596    3.1899990516
 O   -0.6617534342   -3.4021224092    2.3895752237
 C   -0.5306864065   -2.7995539014    1.1754440576
 O   -1.4148460729   -2.8089510915    0.3668324591
 H    0.8892619722    2.0688341451    0.3569608368
 H   -0.5911551845    2.0724693586   -0.6100853230
 H   -0.6794962093    1.8394936077    1.1393037938
 H   -0.9691921326   -0.3536492931   -0.0918547271
 H    0.5782667919   -0.1225764337   -0.8771403246
 H    1.7460539235   -0.2007996006    1.3208064564
 H    0.2116424396   -0.3629084830    2.1562332340
 H    1.2610594074   -2.3663606286    0.0852263173
 H    2.1414121774   -3.7097608344    1.8396627118
 H    2.3736880192   -2.1655439120    2.6697501178
 H    0.7124993887   -4.1523460314    3.7180063593
 H    0.3146187261   -2.4349181519    3.9313728423