16

 C    0.0047844696    1.5080654515   -0.0585528296
 C   -0.0297876696    0.0553043551   -0.0136337630
 C   -0.0548248152   -1.1498414694    0.0237720252
 C   -0.0419395524   -2.5632993675    0.1089630942
 N   -0.3645466910   -3.4481951144   -1.0866469003
 C   -1.1574165872   -3.5964475811    0.1288183878
 C   -0.3616709752   -4.5524235351    1.0239231906
 C    0.7653981947   -3.4784642782    1.0289572503
 O    1.7685157392   -3.3373423403    1.6575979624
 H    0.9064294128    1.8899507466    0.4325323900
 H    0.0086873978    1.8744838838   -1.0909875310
 H   -0.8617387179    1.9455986132    0.4494915795
 H   -0.8708284685   -2.8361801150   -1.7284183308
 H   -2.2194018345   -3.3920151357    0.1601069098
 H   -0.7651123345   -4.6723947499    2.0332820583
 H   -0.1243220482   -5.5257822437    0.5905471064