15

 N    0.1501961905    1.3463456400    0.1021511916
 C   -0.0487791852   -0.0277068568    0.0398192306
 C   -1.1684729330   -0.8045752806    0.0952263889
 C   -0.6950511932   -2.1647287383    0.0755808224
 N   -1.4834665116   -3.3164465173    0.1945046874
 C    0.6618432082   -2.1203841664   -0.0008310687
 N    1.6074986335   -3.1391878439   -0.0430345809
 O    1.0711429241   -0.7726452430   -0.0092274456
 H    0.9795283088    1.6384773515   -0.3994111385
 H   -0.6565108772    1.8712751100   -0.2063899692
 H   -2.1906266262   -0.4673169445    0.1617009245
 H   -2.3095170106   -3.2874663268   -0.3904976084
 H   -0.9410106210   -4.1449029660   -0.0219344973
 H    2.2030874385   -3.1065437918   -0.8648399675
 H    2.2039974244   -3.1794454663    0.7784679206