16

 C    0.1118293731    1.3229306495    0.2398511667
 C   -0.1410596429   -0.1667912511   -0.0014356986
 O    0.0055837829   -0.9384226182    1.1770882469
 C   -1.5156706231   -0.3739885819   -0.6439697545
 O   -1.7792184130   -1.7807912493   -0.8546119997
 C   -2.3876419200   -2.4249629085    0.1372405603
 O   -2.7811417773   -1.9696159903    1.1787164228
 C   -2.5608065359   -3.8380854824   -0.2193972642
 N   -2.7261698586   -4.9575102471   -0.4489803838
 H    1.0923445173    1.4560901840    0.7023407841
 H    0.0888484782    1.8925751486   -0.6952028721
 H   -0.6434400009    1.7435198671    0.9139840450
 H    0.6194739465   -0.5602418584   -0.6858900236
 H   -0.7417395821   -0.7585673026    1.7602828629
 H   -2.3100798991    0.0451020092   -0.0201457755
 H   -1.5561587050    0.0731193612   -1.6389813366