15

 O    0.0514521251    0.3683108521   -1.0170420290
 C   -0.0170503481    1.2451212469   -0.1924147413
 C   -1.3432037802    1.8990565481    0.1921072158
 C   -1.2250313958    2.7914740142    1.4310133230
 N   -0.0821630081    3.6819369325    1.2965418021
 C    1.1558309587    3.2660217981    0.8922551987
 O    2.1202465551    4.0005008475    0.8370404834
 C    1.2161192149    1.7830066429    0.5269302250
 H   -1.6540086351    2.5038928466   -0.6688919348
 H   -2.0968400182    1.1175948729    0.3236154688
 H   -2.1240513486    3.4017505662    1.5446103509
 H   -1.1444219814    2.1734378705    2.3380012399
 H   -0.1408919946    4.6352245441    1.6204335352
 H    1.3003830601    1.2195854913    1.4692993101
 H    2.1156486460    1.5829712361   -0.0543999877