18

 C    0.2121923637    0.9979158717    0.4744359355
 O   -0.4545876088    0.2057886777   -0.5094342880
 C    0.3764377043   -0.5119948897   -1.3149411905
 C    0.7190072334   -1.8417370163   -1.2634021511
 N    0.2437405278   -2.7988394268   -0.3372386745
 C    1.5587002162   -2.0969733844   -2.3935582193
 C    1.7007528277   -0.9151106562   -3.0875315596
 N    2.4360122119   -0.5552899611   -4.2406950876
 N    0.9741230164    0.0474934186   -2.4340822852
 H    0.8390502531    0.3755941332    1.1247399247
 H    0.8437039828    1.7667713779    0.0106848626
 H   -0.5653742578    1.4838122021    1.0685850429
 H   -0.3285980888   -2.3522621914    0.3702487995
 H    1.0014686391   -3.2869647926    0.1277682144
 H    1.9772877128   -3.0515162253   -2.6751207903
 H    3.2295092297   -1.1740793906   -4.3593581205
 H    1.8753651117   -0.6234091879   -5.0863651504
 H    0.9238650749    1.0121468311   -2.7109464825