18

 N    0.0401772041   -1.1303979435   -0.1206098893
 C    0.0106565400    0.0238067834   -0.0628836101
 C    0.0189346615    1.4811428751    0.0249779899
 C    1.4559653906    2.0450589231    0.0737792923
 N    2.1732680302    1.7056700933   -1.1566891441
 C    3.1248929604    2.7662375004   -1.5002758125
 C    2.5087166136    4.0059534942   -0.8837774716
 N    1.0696132628    4.1652843607   -1.1841070318
 C    1.4947476721    3.5638640138    0.0984340729
 H   -0.4779999915    1.9040606644   -0.8527964647
 H   -0.5412543309    1.7806181165    0.9184883989
 H    1.9479436405    1.6783359150    0.9909142136
 H    2.5807959763    0.7810070289   -1.1379263923
 H    4.1292088520    2.6281225418   -1.0646986926
 H    3.2365022329    2.8397430324   -2.5886075260
 H    3.1203635229    4.8876720044   -0.7284824856
 H    0.8065280127    5.1343781647   -1.0201373914
 H    1.3063628197    4.0861803614    1.0299477445