18

 C   -0.1893157713    1.5377161390   -0.0096167727
 C    0.0124014619    0.0307022996   -0.0055429165
 C    1.2002647190   -0.5936925899   -0.8392585368
 C    2.1362510788   -0.2074388528    0.3537328258
 C    0.8600159022   -0.6217427176    1.1758263305
 C    0.7556675394   -2.1069887590    0.7778985726
 C    0.9798053963   -2.0803925343   -0.5378935157
 C    0.6664446294   -0.2429165348    2.5555336621
 N    0.5032266906    0.0852652236    3.6525960953
 H    0.7374654811    2.1054312872    0.1013333955
 H   -0.6579117002    1.8456892438   -0.9504888170
 H   -0.8594432563    1.8319995641    0.8049651655
 H   -0.9445293454   -0.4750468939   -0.1570146773
 H    1.4091042960   -0.2859871673   -1.8625740584
 H    3.0258854802   -0.8187304467    0.5107009764
 H    2.3773427126    0.8542884002    0.4213773850
 H    0.5368181269   -2.9211002657    1.4523004943
 H    0.9945865686   -2.8917448657   -1.2510407284