19

 C   -0.2305005327    1.5693816626   -0.0328994277
 C    0.0250412298    0.0705452470   -0.0027554424
 C    1.2431325442   -0.5721235726   -0.7500845623
 C    2.1643961804   -0.0254969751    0.3766070778
 C    0.9138849555   -0.5899206067    1.1115593533
 C    1.0220051246   -1.8332149303    0.1745245296
 O   -0.1812643253   -2.5634592896    0.0407869765
 C    2.1393527676   -2.7563456095    0.3408679187
 C    3.0103690355   -3.5811043820    0.4343008373
 H    0.6588649224    2.1808176479    0.1371188033
 H   -0.6494352120    1.8600275163   -1.0028554574
 H   -0.9675803103    1.8404421081    0.7311966915
 H   -0.9094318285   -0.4631317575   -0.1743448668
 H    1.4407266069   -0.5877259992   -1.8237337400
 H    3.1091297363   -0.5451728227    0.5404368113
 H    2.3020476517    1.0530311900    0.4125962258
 H    0.7277155245   -0.6227367741    2.1862660605
 H    0.0025921702   -3.3282170761   -0.5138903493
 H    3.7876410992   -4.2983106564    0.5327056702