20

 C    0.0351479355    1.5273417879    0.0814655231
 C    0.0196052707    0.0133240701   -0.0440166578
 C    0.7562252134   -0.5072239140   -1.2774122004
 C    0.9377009331   -2.0213954958   -1.2208384391
 C    2.1626031422   -2.5856111531   -0.5649392514
 C    0.8190417227   -2.6925341534    0.1358499734
 C    0.5785813961   -1.8618475874    1.3422210815
 N    0.4034083758   -2.3853595110    2.4824275624
 O    0.6190494066   -0.5019495453    1.1669940051
 H    1.0641150996    1.8934802995    0.1514016362
 H   -0.4378816066    1.9855938031   -0.7923192079
 H   -0.5045490414    1.8450091275    0.9771133136
 H   -1.0204849040   -0.3431062109   -0.0742046924
 H    0.1833364265   -0.2290544123   -2.1680856147
 H    1.7271491846   -0.0035699087   -1.3556560456
 H    0.5344307105   -2.5797673391   -2.0587445714
 H    2.5923561616   -3.5041457552   -0.9475138723
 H    2.8828604457   -1.8826845206   -0.1590111877
 H    0.3805670530   -3.6800534138    0.1984212812
 H    0.2572505745   -1.6492963275    3.1769977244