17

 C   -0.0702161356    1.5249547867   -0.0777132663
 C   -0.0750495636    0.0321338336    0.1185802867
 O    1.2066178068   -0.6427263200   -0.0123812396
 C    0.5693840530   -0.6217422791    1.2506651122
 C    1.2869543083   -0.1575490416    2.4972574036
 C    0.4895837613   -0.8254279492    3.6318586528
 O   -0.6406721700   -1.4913683313    3.0591906343
 C    0.2664440664   -1.9263990668    2.0042028058
 C    1.5178426693   -1.6203607940    2.9170750111
 H    0.7546186839    1.9884997283    0.4693997614
 H    0.0369638611    1.7754750847   -1.1381419298
 H   -1.0119628469    1.9566573492    0.2777705555
 H   -0.8906944775   -0.5016562075   -0.3726006050
 H    1.9360171172    0.6952276424    2.6418510639
 H    0.4231798192   -0.4455927713    4.6428391566
 H   -0.0194528241   -2.8512167463    1.5086841351
 H    2.4035938713   -2.1662584079    3.2070276116