16

 C   -0.2265381781    1.5363675401    0.0140787110
 C    0.1010877560    0.0433442118   -0.0033668846
 C    0.9214312826   -0.4630920783   -1.2073133912
 C    1.9507103930   -1.4193025764   -0.6270702519
 N    2.6836382917   -2.1922035428   -1.3146938379
 N    1.9158366450   -1.2399213016    0.7566586834
 C    0.9279976402   -0.3807706229    1.2160396472
 O    0.7647693812   -0.0613803029    2.3677219002
 H    0.6820927273    2.1385327080   -0.0915610215
 H   -0.9030396448    1.7967913117   -0.8048526880
 H   -0.7015025779    1.8053812942    0.9606227241
 H   -0.8360984947   -0.5236278179    0.0708119717
 H    0.3296335176   -0.9616109607   -1.9762106712
 H    1.4536918178    0.3618660128   -1.6937602631
 H    3.3185145569   -2.7385123255   -0.7296477386
 H    2.5485446362   -1.6961708196    1.3979638705