19

 C    0.0572447215    1.5636803442   -0.0294528264
 C    0.0622782316    0.0342314300   -0.0048444924
 C    0.7036415235   -0.5350635639    1.2475745936
 O   -0.0529599164   -0.1285417436    2.3651099752
 C    0.5157597432   -0.5448448748    3.5922559058
 C    0.9754358318   -2.0005728646    3.5920174515
 O    1.1025819578   -2.6339962322    4.6106657059
 C    1.3675689612   -2.5659697271    2.2293195044
 O    0.7152096894   -1.9394092406    1.1404607445
 H    1.0756696367    1.9668385348    0.0029044962
 H   -0.4164730471    1.9333495681   -0.9430345129
 H   -0.4902664805    1.9638543291    0.8273509125
 H   -0.9585310092   -0.3590207579   -0.0555476955
 H    0.6071135718   -0.3693887894   -0.8641039673
 H    1.7451180021   -0.1710215280    1.3659096122
 H    1.3987524256    0.0697075783    3.8466033416
 H   -0.2275936897   -0.4003940579    4.3793115147
 H    2.4648660350   -2.4603004829    2.1447540065
 H    1.1336342617   -3.6323733914    2.1991774898