18

 C   -0.0371985723    1.4078138587   -0.0304874273
 C   -0.0182968234   -0.0820499927    0.0077365100
 O    0.9572025463   -0.7870172307   -0.7698222709
 C    0.1948046740   -1.9931905450   -0.4895839533
 C    0.4546900475   -2.2498039432    1.0157727278
 C   -0.3460927205   -0.9676462386    1.2332262821
 C   -1.0755053408   -1.1318979690   -0.1069780819
 C   -2.5159652511   -1.1521083967   -0.4992909218
 H    0.8923941281    1.8183732164    0.3782992942
 H   -0.1507983981    1.7729290946   -1.0562269293
 H   -0.8683623315    1.7934813761    0.5676585882
 H    0.2931454030   -2.7588346769   -1.2572049073
 H   -0.0867803375   -3.1281799434    1.3779412377
 H    1.5036620518   -2.2887286029    1.3265569707
 H   -0.7355197187   -0.5554725440    2.1566207459
 H   -3.0539182559   -0.3205265432   -0.0308851914
 H   -2.6393165482   -1.0587154677   -1.5843171331
 H   -3.0092017528   -2.0792474418   -0.1845627405