19

 C   -0.0880889740    1.3660109267    0.0715982729
 O   -0.0502144277   -0.0396746619    0.0097476930
 C    0.7231653705   -0.6126193137    1.0449990872
 C    0.6903454690   -2.1013723197    0.8935941303
 C    1.1898876386   -3.0152010106   -0.2475633470
 C    0.6034094600   -4.0200233718    0.7689286073
 C    1.0564235306   -3.1578774940    1.9879912742
 O   -0.2550188512   -3.1324210759    2.6248674140
 C   -0.5288144724   -3.0366065137    1.1929992133
 H    0.9169663491    1.8072372680   -0.0249125012
 H   -0.7069494464    1.7137075098   -0.7591485381
 H   -0.5277194894    1.7223066259    1.0167460485
 H    1.7621649931   -0.2414127516    1.0013583780
 H    0.3172983415   -0.3431729673    2.0349705135
 H    0.6691363448   -2.9230500749   -1.2035837672
 H    2.2720958723   -3.0540691105   -0.4031675327
 H    0.5410639222   -5.1068955249    0.7285896814
 H    1.9450878151   -3.2377198349    2.6149811762
 H   -1.5623015455   -2.9613386149    0.8572616065