15

 O    0.2721126073    1.3456886738    0.1572732536
 C    0.0081950273    0.0022333550    0.0259506430
 C   -1.3457278593   -0.6535145267    0.0481853968
 C   -2.5616043563    0.1934073125   -0.2887288198
 O   -2.2612148676    1.5566273222   -0.6590722604
 C   -2.5309517877    0.5961978150   -1.7034806987
 C   -1.2731145456   -0.0177989185   -2.3169217479
 O   -1.0400539880   -0.0507372585   -3.4987083773
 C   -0.4958332821   -0.7160848253   -1.2352511002
 H   -0.5131882993    1.8250524917   -0.1468299903
 H    0.7892509449   -0.5710995147    0.5174924923
 H   -1.5172233757   -1.5289019643    0.6643451727
 H   -3.4838045694    0.0695811655    0.2691256688
 H   -3.3892774994    0.8137449241   -2.3304012547
 H    0.0474688910   -1.5987375817   -1.5508032979