14

 N    0.0414721868    1.3579856275   -0.1274572451
 C   -0.0240718235   -0.0151368270   -0.0254681353
 N   -1.1250867549   -0.7140405161   -0.0037036024
 C   -0.6784146805   -2.0349518799   -0.0092523730
 C   -1.1043282921   -3.3282755289   -0.0005959622
 O   -0.0096368576   -4.1516536715   -0.0111946585
 C    1.1307309155   -3.3874295750   -0.0145428530
 C    0.7539848727   -2.0854739910   -0.0175682822
 N    1.1621051627   -0.7543540409    0.0193561992
 H    0.7438976641    1.7967396117    0.4524812422
 H   -0.8687852673    1.7806373799   -0.0061671203
 H   -2.0612342815   -3.8193488708    0.0102044322
 H    2.0607474120   -3.9270260769   -0.0301181040
 H    2.0396366437   -0.4010421610   -0.3236784177