22

 C   -0.2529868111    1.4481989128    0.2230932627
 C    0.2409943913    0.0325356677   -0.0639429995
 N    0.8645867805   -0.5481819446    1.1228868195
 C   -0.0603171007   -1.2880416839    2.0019555003
 C    0.9060974575   -2.0194854946    1.1411932863
 C    1.8157221027   -2.6578155040    2.2107222932
 C    0.7187906518   -3.1851725641    3.2037737195
 C    0.4758754184   -1.6458594482    3.4030065456
 C    2.0151232080   -1.5041386317    3.2339464703
 H    0.5709717754    2.0780910148    0.5698673798
 H   -0.6822140246    1.8986346575   -0.6772055721
 H   -1.0240449462    1.4434930883    1.0003751489
 H   -0.5947798720   -0.5860203765   -0.4406159100
 H    0.9994388519    0.0533745998   -0.8558489283
 H   -1.1255990264   -1.2554654300    1.7961243756
 H    0.6082910927   -2.5690955460    0.2539132567
 H    2.6426388426   -3.2822711705    1.8726217270
 H   -0.1003766525   -3.7811439075    2.7891579253
 H    1.1369137771   -3.6732146999    4.0880609510
 H   -0.0513962792   -1.2476167987    4.2698655695
 H    2.5473014225   -1.8475017736    4.1231808117
 H    2.4108496402   -0.5568673070    2.8746336468