14

 C    0.7744277276    0.1930117922   -0.5202594410
 C   -0.5572031041    0.4089713009    0.1473022662
 O   -1.0053674875    1.4732367771    0.4785877915
 C   -1.4061510925   -0.8743058074    0.4313990017
 O   -1.3320407257   -1.7493816648   -0.6921497329
 C   -2.4956496724   -2.2885489546   -1.1572418856
 O   -2.5161565748   -3.0156356113   -2.0960584667
 C   -0.9019550772   -1.5509430473    1.6327199296
 N   -0.4794272125   -2.0591628363    2.5803104803
 H    1.3817372308   -0.5000736179    0.0726186968
 H    0.6303244274   -0.2735923776   -1.4992658698
 H    1.2877602120    1.1484432257   -0.6257944801
 H   -2.4328901744   -0.5365290412    0.6104554850
 H   -3.3784039867   -1.9662637674   -0.5749091851