17

 O    0.3314509046    0.0667999239   -0.0604258627
 C    0.1210549413    1.2423970970    0.0242720213
 C   -1.1086558476    2.0977520157    0.3535981723
 C   -0.1235475522    3.2620711369    0.6841106571
 C    1.0436101239    2.4827359447    0.0082555708
 N    2.2837979259    2.3631960148    0.7494022323
 C    3.2430837644    1.4698350577    0.0958576764
 C    4.4812466574    1.3811558832    0.8725917501
 N    5.4677310763    1.3317234304    1.4711399868
 H   -1.7254524133    2.2827385392   -0.5317097246
 H   -1.7510983203    1.7220102614    1.1525724684
 H   -0.3595881069    4.2381070608    0.2603275235
 H    0.0494326287    3.3580371992    1.7576199375
 H    1.1755787057    2.8120976624   -1.0414947399
 H    2.7017221592    3.2803891636    0.8747498103
 H    2.7924208429    0.4748124023    0.0243245058
 H    3.5076220699    1.7750929867   -0.9332258054