22

 C    0.0207157456    1.6037623690    0.0618652020
 C   -0.1619871784    0.0937748372   -0.1290492655
 C    0.6878734158   -0.4655150620   -1.2634774199
 C    2.2704154068   -0.5124420852   -1.1000858674
 O    2.8215299583   -0.1789054051    0.1454695125
 C    2.2077879345   -2.0109287055   -1.4197058144
 N    1.3901155391   -2.5639957136   -0.3026983890
 C    0.7210664510   -1.9854740882   -1.5015372751
 C   -0.2313806730   -2.7885203470   -2.3322848352
 H    1.0604401646    1.8335321825    0.3095881875
 H   -0.2422011333    2.1546633798   -0.8487749804
 H   -0.6138046320    1.9796849772    0.8707509133
 H    0.0860702453   -0.4319167528    0.7987177422
 H   -1.2177522033   -0.1299312513   -0.3341150222
 H    0.4468837613    0.0454151565   -2.2037928475
 H    2.7865747146    0.0852998637   -1.8538492675
 H    2.5074904959   -0.8649037955    0.7514562407
 H    2.9341397384   -2.6329356851   -1.9302295262
 H    1.3830139762   -3.5779642290   -0.4041632450
 H   -1.2070392981   -2.8816522809   -1.8412404024
 H   -0.3941558023   -2.3140236027   -3.3059682347
 H    0.1505954430   -3.8000113921   -2.5109605456