22

 C   -0.4409509414    0.8890561515   -1.8341347281
 C   -0.1580755608   -0.2288684632   -0.8518893974
 C    1.2371895727   -0.4973920415   -0.3323230364
 C    2.4123882441    0.3668517224   -0.7401998795
 C    0.1541023444   -0.0169756179    0.6196718892
 N    0.2148899381    1.2904744597    1.2080375352
 C    1.2339924570    1.5304898941    2.2233197322
 C   -0.8698413270    2.1277283193    1.1588825420
 O   -0.9857521767    3.1655889264    1.7761244809
 H    0.0928437640    1.8095314690   -1.5908258185
 H   -0.1408326057    0.5872268301   -2.8436968082
 H   -1.5096278910    1.1249533130   -1.8671634056
 H   -0.7572422644   -1.1167758908   -1.0373639530
 H    1.4935397784   -1.5469141313   -0.2133710629
 H    2.1800675534    1.4329478532   -0.6893979926
 H    3.2755573839    0.1832076032   -0.0920894152
 H    2.7201562222    0.1419540894   -1.7671657412
 H   -0.2345056612   -0.7798457268    1.2958167900
 H    2.2352033230    1.4699474131    1.7907459772
 H    1.0678108806    2.5260868481    2.6342124286
 H    1.1598051585    0.7916697317    3.0319702870
 H   -1.6441334921    1.7514263671    0.4672309563