20

 C   -0.1802739618    1.5337194745    0.0656158182
 N   -0.0269029398    0.0825853943    0.0748402457
 C    0.7017089570   -0.4067671444    1.2413997698
 C    2.2140523115   -0.1140214054    1.1502456956
 C    2.9456077040   -0.6835867913    2.2740325577
 C    3.5199584591   -1.1676737492    3.2122926651
 C   -1.3063758536   -0.5768131459   -0.1218753698
 C   -1.7838514966   -0.4364702515   -1.5606401283
 O   -2.9376672351   -0.4192758281   -1.8979210947
 H    0.7952643088    2.0250313649    0.0844692689
 H   -0.6868527986    1.8497897324   -0.8515836215
 H   -0.7712777467    1.9046659848    0.9235675036
 H    0.3085577500    0.0079670630    2.1871138068
 H    0.5724085675   -1.4915806589    1.2948932364
 H    2.5898680757   -0.5206275058    0.2039685138
 H    2.3921387172    0.9670233886    1.1155879720
 H    4.0413472022   -1.5891436420    4.0356140088
 H   -1.1791266747   -1.6550318600    0.0475095374
 H   -2.1099232664   -0.2360911668    0.5547580419
 H   -0.9483717998   -0.3779907029   -2.2954839375