18

 C    0.0796275858    1.4932524638   -0.0952619619
 C    0.0374047916   -0.0384114659    0.0619985463
 C    0.6959773657   -0.4478345931    1.3079700087
 N    1.1933046900   -0.7709173329    2.3003272626
 C   -1.3940070352   -0.5991510076    0.0293430687
 C   -2.1977922352   -0.4924125405   -1.3223803430
 C   -2.2941536557   -2.0226662386   -1.3237668908
 O   -0.9522499491   -2.5241034084   -1.3156892139
 C   -1.5343735786   -2.1296154024   -0.0683213693
 H    1.1092455202    1.8590499928   -0.0918606621
 H   -0.3861310184    1.7827414605   -1.0409350243
 H   -0.4594014869    1.9842611695    0.7200958031
 H    0.5876360250   -0.5033709178   -0.7648363391
 H   -1.9758582672   -0.1963611094    0.8633287189
 H   -3.1576407503    0.0126728246   -1.1968842350
 H   -1.6703184578   -0.0678034727   -2.1804021708
 H   -3.0604785636   -2.6631394373   -1.7431346621
 H   -1.5564809905   -2.8642880547    0.7273152840