18

 C   -0.0595391696    1.5774945611    0.1809015318
 C   -0.0618901940    0.0528262930    0.0248486267
 C    0.8354418619   -0.6428002870    1.0543492372
 N   -1.4251151020   -0.4803745051    0.0662564785
 C   -2.3174146926   -0.4378751276    1.0875083422
 C   -3.4623995869   -1.0721856962    0.6496835956
 C   -3.1579646276   -1.4681130050   -0.6670811947
 N   -1.9245522930   -1.1088889513   -1.0177110576
 H    0.9558200739    1.9657786284    0.0568919042
 H   -0.7034181671    2.0450625906   -0.5684778489
 H   -0.4126428359    1.8769513127    1.1732558174
 H    0.2811751287   -0.2042308372   -0.9801411887
 H    0.5138653889   -0.4213609697    2.0774370997
 H    0.8168987617   -1.7268254366    0.9153553077
 H    1.8678255129   -0.2967837221    0.9468472618
 H   -2.0778904445    0.0298041333    2.0292481187
 H   -4.3760042380   -1.2232621813    1.2014024262
 H   -3.7800944067   -1.9974229203   -1.3739286779