23

 C   -0.0008773687    1.5478343456    0.0727836498
 C   -0.0338063583    0.0173213702    0.0555715793
 C   -1.4529670051   -0.5502963455   -0.0472300856
 C   -1.4886226834   -2.0836755432   -0.0601380261
 C   -2.8793486417   -2.6448981109   -0.0949857088
 C   -4.0552327603   -2.3722546246   -1.0789295336
 C   -4.5795341207   -3.1790459696    0.1280020949
 C   -3.3575206042   -4.1180706477    0.0339884353
 O   -3.8044692761   -2.2974489075    1.0281770034
 H    1.0238417164    1.9253131583    0.1463868661
 H   -0.4442959782    1.9635626927   -0.8389638777
 H   -0.5647878125    1.9453842170    0.9238260812
 H    0.5683208193   -0.3533474876   -0.7850397170
 H    0.4455799008   -0.3702269352    0.9643343918
 H   -2.0599354901   -0.1911759181    0.7923581804
 H   -1.9335705211   -0.1674873257   -0.9574336548
 H   -0.9392791467   -2.4715693931   -0.9284199292
 H   -0.9833794630   -2.4773831697    0.8314590497
 H   -4.3948675959   -1.3369420477   -1.1255328267
 H   -4.0294836014   -2.8601212377   -2.0572536024
 H   -5.6063665884   -3.4054648685    0.4142832870
 H   -3.2675441488   -4.7676989498   -0.8409879525
 H   -3.0796697118   -4.6125658419    0.9660010455