19

 C   -0.0370521342    1.5152123351    0.0597591469
 C   -0.1917992861    0.0081746627   -0.1150607397
 N    0.8471805691   -0.5091434922   -1.0090075182
 C    0.7907726508   -1.9503009165   -1.2403797156
 C   -0.5073454744   -2.4028909817   -1.8230576720
 N   -1.5380813754   -2.6914832893   -2.2596395252
 C    1.8964730864   -2.3962957494   -2.0893462736
 C    2.8001034491   -2.7570905404   -2.7957341201
 C    3.8955950053   -3.1945357921   -3.6471930151
 H    0.9581303823    1.7621650064    0.4397204451
 H   -0.1768723554    2.0381937345   -0.8931403761
 H   -0.7852962998    1.8983112890    0.7592875360
 H   -0.0704371082   -0.4936681515    0.8538118614
 H   -1.2100083353   -0.2265459590   -0.4672957338
 H    0.8174336159   -0.0287811002   -1.9035664245
 H    0.8716405764   -2.4372750192   -0.2577004592
 H    4.4028300203   -4.0662741357   -3.2204964241
 H    3.5348600451   -3.4707980046   -4.6435451007
 H    4.6403693881   -2.4007399259   -3.7679854416