15

 C   -0.0342342407    1.4253334830   -0.0645885614
 O   -0.0213466764    0.0088241045    0.0093176522
 C    0.6137699449   -0.5532580242    1.0617756024
 C    1.2647991921    0.1024355667    2.0946689727
 N    1.8723116204   -0.5478246798    3.1055908995
 C    1.8164446040   -1.8673273398    3.0640752986
 N    1.2187570253   -2.6107546469    2.1210797844
 C    0.6267074577   -1.9647204203    1.1354279339
 O    0.0164689830   -2.6677528978    0.1705501861
 H    0.9823385614    1.8327783718   -0.1339455263
 H   -0.5866884526    1.6742234493   -0.9711994995
 H   -0.5396946320    1.8678251514    0.8031407394
 H    1.3089782173    1.1862453084    2.1259999016
 H    2.2999393359   -2.4129321190    3.8696558227
 H    0.1388733999   -3.5995712674    0.4041038438