19

 C   -0.1625346195    1.5342615126   -0.0073894312
 C    0.0516909843    0.0232149404    0.0014445450
 C    1.0204752274   -0.5467073126   -1.0894309789
 C    1.9797049197   -1.2916585837   -0.1395309100
 O    1.0600412130   -1.9296201827    0.8002015804
 C    0.8025607209   -0.5561992229    1.2254824036
 C    2.3025126816   -0.2310539882    0.9540747502
 C    3.2320736839   -0.7227403698    2.0266041152
 O    4.1429022129   -0.0683543490    2.4717165581
 H    0.7828027110    2.0836876043    0.0476889098
 H   -0.6712339296    1.8476960682   -0.9244932964
 H   -0.7827053269    1.8513160646    0.8381829221
 H   -0.9171341830   -0.4819234679   -0.0566483860
 H    0.5297143873   -1.2364498718   -1.7790151189
 H    1.5222684705    0.2333181519   -1.6694150764
 H    2.7333971005   -1.9619882447   -0.5528618490
 H    0.3488260027   -0.4714957604    2.2136402995
 H    2.5826410347    0.7773915959    0.6447855927
 H    3.0203280185   -1.7497262242    2.3900143806