16

 C    0.9459551064    1.1497853315    0.1715763745
 N   -0.0431080118    0.1142338095   -0.1116855100
 C   -0.6720362268   -0.5523195003    0.9282219200
 O   -0.4680933144   -0.3460926871    2.0982259647
 C   -0.3552911894   -0.2045676468   -1.4168011388
 N    0.2024321598    0.3869031490   -2.3924767047
 C   -0.1510411028    0.0251477223   -3.7526604097
 C   -1.1625323684   -1.0347595790   -3.9113646048
 N   -1.9592142618   -1.8699940202   -3.9731560476
 H    1.9073181722    0.8780744219   -0.2704670076
 H    0.6256941037    2.0999134387   -0.2621764493
 H    1.0308316561    1.2314847583    1.2537049335
 H   -1.3919005757   -1.3048948199    0.5591456114
 H   -1.1083530976   -0.9938368515   -1.5110546011
 H   -0.5092275978    0.9211723068   -4.2745952855
 H    0.7575743681   -0.2865667033   -4.2825905051