11

 C   -0.0718557353    1.4205951056    0.0449223772
 N   -0.0112471143   -0.0236773171   -0.0121043443
 C    0.3651029218   -0.8295101751   -1.0258886191
 N    0.2767278500   -2.0979122096   -0.6692894654
 C   -0.1723314423   -2.0074915606    0.6116948408
 N   -0.3629449886   -0.7756752568    1.0585065267
 H    0.2510144648    1.8236034093   -0.9166211263
 H   -1.0944061896    1.7468150343    0.2498430421
 H    0.5851734638    1.7947476749    0.8338768081
 H    0.6884650960   -0.4516136499   -1.9844972558
 H   -0.3643762164   -2.8699061150    1.2324615860