15

 C   -0.0596189201   -1.1583494134    0.1206080216
 C   -0.0454284107    0.0431997592    0.0759159209
 C   -0.0062896844    1.4695103572   -0.0127408311
 O   -0.6632310636    2.2872666184    1.0224447958
 C   -0.0910753283    3.2632229874    0.0899842777
 C    1.2400443889    2.4509009139   -0.0466343514
 C    1.6921210518    2.5586082967   -1.4865508261
 C    0.5582261275    2.5456317129   -2.1958876738
 C   -0.5370047983    2.4305682297   -1.1583119934
 H   -0.0760993570   -2.2195405386    0.1666256760
 H   -0.2387341801    4.3224924515    0.3066476507
 H    1.9415263412    2.4266328764    0.7848344375
 H    2.7144750508    2.6200519610   -1.8317046762
 H    0.4204623198    2.5938018853   -3.2667821517
 H   -1.5909988975    2.3862147925   -1.4250243166