11

 N   -0.3074585293    1.3674667304    0.0511822061
 C   -0.0885884151    0.1249480881    0.0803439108
 C   -1.1758684174   -0.8829593970   -0.0633736143
 N   -1.3223803384   -1.8692595449    0.7208523539
 C   -0.5209964929   -1.9806024096    1.8687971268
 O   -0.9661473459   -2.1115348683    2.9647311702
 O    0.8496148741   -2.0972616441    1.6806042878
 N    1.6719720118   -1.3867421546    0.6916254989
 N    1.2425638368   -0.4207308574    0.0911293433
 H    0.5637507011    1.8999176368    0.1302163421
 H   -1.8561191948   -0.7644808994   -0.9067579656