14

 C   -0.0015196099    1.3995866722    0.0383121301
 O    0.0160717686   -0.0311289514    0.0225529304
 C    0.6287605445   -0.6217079789    1.0458324937
 N    1.2090525306    0.0227661724    2.0534950015
 N    1.6693711028   -0.9898022411    2.8036962282
 N    1.4428471624   -2.2068017672    2.3799468670
 C    0.7654378497   -2.0233997947    1.2339676294
 C    0.2809812323   -3.1085320657    0.3757859848
 O    0.4305394498   -4.2877489334    0.5923622739
 H    1.0172546593    1.7984341676    0.0260674026
 H   -0.5369739756    1.6989341222   -0.8624464299
 H   -0.5179443426    1.7696148315    0.9291032312
 H    2.1699550232   -0.8132755778    3.6605463584
 H   -0.2559138950   -2.7441905458   -0.5255013911