17

 C    0.4680049547    1.4076234218   -0.2380489765
 C   -0.0917569987    0.0505811358    0.1672645661
 O   -0.0114941945   -0.8806301337   -0.9341397182
 C    1.0339191945   -1.7503656686   -0.7770192555
 N    1.3403495916   -2.6579848494   -1.5982309349
 C    1.7369831062   -1.4558285673    0.5275204903
 C    0.6840928326   -0.6530675915    1.3046232502
 O    1.1856307462    0.3073086487    2.2102248952
 H    1.5293951829    1.3431227451   -0.4939797014
 H   -0.0749925782    1.7823957769   -1.1095876823
 H    0.3589759811    2.1191288434    0.5834246597
 H   -1.1536243435    0.1453719974    0.4113884364
 H    0.7103944277   -2.6364325947   -2.4027176958
 H    2.0700782144   -2.3735713294    1.0134423558
 H    2.6155591908   -0.8269174149    0.3443172069
 H   -0.0006085646   -1.3468064328    1.8142196668
 H    1.6013163468   -0.1561927168    2.9433454472