19

 C    0.6998383364    1.4281917983    0.0007970635
 O    0.7700069862    0.0234495357    0.0509425448
 C   -0.1477877961   -0.5390346778    0.9670721239
 C    0.0408142877   -2.0415642911    0.9507895019
 C    1.2819669785   -2.6149567461    1.6426192159
 O    1.1578504459   -2.3236732032    3.0466752404
 C    0.4762007190   -3.4772342677    2.5216189145
 C   -0.8355294639   -2.9241003317    1.9399503755
 O   -1.6847378014   -2.2741340085    2.8458159818
 H    0.9273300679    1.8846747782    0.9772107802
 H    1.4397267203    1.7677796872   -0.7282909313
 H   -0.2963478072    1.7770008396   -0.3150853400
 H    0.0275985436   -0.1415804213    1.9790945980
 H   -1.1844219693   -0.2846214074    0.6909371295
 H   -0.0483720075   -2.4129561456   -0.0744872045
 H    2.2845472730   -2.7554173952    1.2585738008
 H    0.6900337385   -4.4314562824    2.9890756938
 H   -1.4344266735   -3.6649032683    1.4058312970
 H   -1.1082028980   -1.7889662327    3.4502774443