23

 C   -0.1806954714    1.4585575605    0.4693560184
 C   -0.3783614245   -0.0583662254    0.4827324756
 C   -1.1168802711   -0.5662463083   -0.7725741103
 C   -1.3225396271   -2.0103839583   -0.7750639287
 C   -1.4776984792   -3.2044078807   -0.7447641894
 C   -1.6893414055   -4.6461085698   -0.7148670666
 C   -2.6711941563   -5.1095183916    0.3858521433
 C   -2.9094497688   -6.6189299310    0.3194589450
 O   -2.2423813554   -4.7069392936    1.6775568120
 H    0.3448782612    1.7971345027    1.3673483125
 H    0.4067897371    1.7759546389   -0.3996603316
 H   -1.1413324745    1.9842848913    0.4282035783
 H    0.5910441421   -0.5647545474    0.5511159304
 H   -0.9455141666   -0.3586592312    1.3706118092
 H   -2.0869437537   -0.0562323557   -0.8506879466
 H   -0.5523363327   -0.2713810127   -1.6680282599
 H   -2.0651272624   -4.9902391783   -1.6877609378
 H   -0.7306721219   -5.1660956352   -0.5648322086
 H   -3.6215205223   -4.5844802359    0.2379960949
 H   -1.9670954263   -7.1678087171    0.4428193833
 H   -3.5887176947   -6.9260005886    1.1186999939
 H   -3.3446099852   -6.9144129181   -0.6409010407
 H   -1.3855756109   -5.1152931047    1.8453602635