22

 C    0.0589743826    1.5722191920   -0.1735245726
 C    0.0162614764    0.0563191700    0.0444734546
 C   -1.4000145017   -0.5244272314    0.1437144964
 C   -1.4436514582   -2.0548769782   -0.0766989704
 C   -2.8587848055   -2.6098207486    0.0873957279
 N   -3.3457684404   -2.2903552807    1.4256516711
 C   -3.4663096880   -0.8494342580    1.6464675243
 C   -2.1020967510   -0.1836242902    1.4579985422
 O   -1.6393117338    0.5609911641    2.2905288521
 H    1.0917261759    1.9232303086   -0.2639391385
 H   -0.4667749498    1.8542861887   -1.0934448890
 H   -0.4056040504    2.0980994662    0.6630014503
 H    0.5344474846   -0.4457588488   -0.7821381293
 H    0.5640006848   -0.1977366955    0.9590766874
 H   -2.0300259266   -0.0746578494   -0.6424940270
 H   -1.0620179406   -2.2851475103   -1.0774184905
 H   -0.7834857396   -2.5456601270    0.6481039030
 H   -3.5050764548   -2.1982581914   -0.7136173699
 H   -2.8532253009   -3.6984695214   -0.0285588207
 H   -4.2376127991   -2.7399203707    1.5987703128
 H   -4.1743655756   -0.3572426879    0.9471409127
 H   -3.8032986483   -0.6518527001    2.6663048929