17

 C    0.0550471270    1.2982102054   -0.1509562304
 N   -0.0815981884   -0.1431440417   -0.0137330440
 C   -1.3304380595   -0.6839085066    0.0363798740
 N   -2.4605946746   -0.0743876555    0.2408425444
 C   -3.3891936764   -1.1128913701    0.2512363295
 C   -2.7789427444   -2.3001755786    0.0512240966
 C   -3.1939854932   -3.7190738106   -0.0639886537
 O   -3.0772978271   -4.2524477199   -1.3814949293
 O   -1.4163055264   -2.0292828023   -0.0921644051
 H    1.1044903919    1.5663728201   -0.0125332905
 H   -0.2878423224    1.6706865829   -1.1256372713
 H   -0.5402382562    1.7852758604    0.6234449135
 H    0.6041096785   -0.7147517916   -0.4818444366
 H   -4.4409719739   -0.9247737301    0.4021116453
 H   -2.6301921820   -4.3368276676    0.6528485371
 H   -4.2521333617   -3.7906373862    0.2019965279
 H   -2.1562640710   -4.1590142979   -1.6456491675