18

 C   -0.0321350211    1.7561068473   -0.1710091636
 C    0.0414358692    0.2473715604   -0.0267672218
 O    0.8859603774   -0.2757644967   -1.0389808897
 C    1.6059915759   -1.3573661915   -0.4655817442
 C    1.8155269291   -0.8739896202    0.9669705191
 O    0.6205566317   -0.1370864531    1.2279176302
 C   -1.3758589421   -0.3836784377   -0.1753899358
 N   -1.6841862816   -1.3185236245    0.7633177587
 O   -2.1023038763   -0.0676078305   -1.0950729546
 H    0.9768128089    2.1738760482   -0.1500695742
 H   -0.5185814985    2.0019180473   -1.1158404383
 H   -0.6168740383    2.1821773848    0.6483968213
 H    1.0204598899   -2.2871424957   -0.4938739413
 H    2.5297340222   -1.4933459763   -1.0315280024
 H    1.9031621374   -1.6800132156    1.7006322117
 H    2.6923797202   -0.2182991291    1.0467147442
 H   -1.1181153117   -1.3717921355    1.5932194494
 H   -2.6222179325   -1.6857665917    0.7703096913