16

 C   -0.0457939878    1.5531931701   -0.0865802992
 C   -0.0347535462    0.0268791071    0.0122257216
 C    0.7165251408   -0.4697685729    1.2533420446
 O    0.0219474306    0.0068312324    2.4029256063
 C    0.6793536589   -0.0562708088    3.5897414058
 N    0.1136296908    0.3716850978    4.6284594849
 C    0.8100138196   -1.9433493411    1.2715592511
 N    0.8944994369   -3.0954289949    1.2814993847
 H    0.9712871431    1.9539579745   -0.1594016926
 H   -0.5938382601    1.8711115511   -0.9773890463
 H   -0.5258482964    1.9974161400    0.7882011817
 H   -1.0551865491   -0.3666519155    0.0568579336
 H    0.4435604400   -0.4177176192   -0.8667143161
 H    1.7412636869   -0.0709907359    1.2453314048
 H    1.6830808520   -0.4940023180    3.5148360124
 H    0.7260834500    0.2623427333    5.4340120228