19

 O    0.3479498983    1.0357144413   -0.5765309236
 C    0.1266411799   -0.1761050614    0.0993157145
 C    0.1031500610   -0.2036108637    1.6498541877
 C   -1.1466107311   -1.1252504946    1.5802429297
 C   -1.3428466939   -0.7230433626    0.0968940748
 O   -2.2549501962    0.3684427952    0.0405297569
 C   -1.7101151637   -1.8074580074   -0.9215977900
 C   -3.0828892546   -2.3920408493   -0.6632317783
 O   -3.3000566487   -3.5650335305   -0.4920700815
 H   -0.1365097038    1.7169375390   -0.0964365703
 H    0.8295395426   -0.9008041264   -0.3214002305
 H    0.9926486544   -0.5818274083    2.1567536443
 H   -0.1416706382    0.7805398522    2.0600778108
 H   -0.9025829739   -2.1847009050    1.6865541293
 H   -1.9820351954   -0.8827570332    2.2387292292
 H   -2.0888632943    0.8200112860   -0.7972847121
 H   -1.7091107581   -1.3556429353   -1.9253753088
 H   -0.9770916922   -2.6193706119   -0.9130443456
 H   -3.9013774622   -1.6417014242   -0.6259603964