16

 O    0.0910293764    1.4037747087    0.0908240042
 C    0.0008370086    0.0273734931   -0.0206664288
 C   -0.4982437386   -0.7545880461    1.1668262193
 O   -0.8798652510    0.0727912623    2.2364822650
 C   -2.2857233863    0.1314327680    2.4911651409
 C   -3.0912772548    0.4099138286    1.2479742468
 C   -2.6377943165    0.0416834061    0.0510347398
 C   -1.3559918702   -0.6883401827   -0.0784837824
 H   -0.1939298914    1.6116996908    0.9926060056
 H    0.7970454112   -0.3941628697   -0.6269827268
 H   -0.0278576955   -1.6852849897    1.4761506547
 H   -2.6191692687   -0.8034618322    2.9705713688
 H   -2.4108805396    0.9323765469    3.2265698370
 H   -4.0422956061    0.9187858038    1.3702250160
 H   -3.1961694985    0.2607258089   -0.8542737311
 H   -1.3766484589   -1.5774523567   -0.7033370990