18

 C   -0.1153989421    1.5621288043   -0.1585861386
 C   -0.0093307860    0.0364341166   -0.0766740541
 C   -1.3533909466   -0.6066933510    0.2109241602
 O   -2.3195705016   -0.3783399345   -0.8440349277
 C   -2.4333763269   -1.7805394830   -1.1342029532
 C   -1.4939386424   -2.1578394974    0.0441742960
 C   -0.3174549982   -2.9467808789   -0.2513246213
 C    0.6548792135   -3.6065190356   -0.5080144774
 H    0.8512260697    2.0112256824   -0.4043084126
 H   -0.8343807488    1.8533711070   -0.9294842243
 H   -0.4510996333    1.9894683645    0.7929739423
 H    0.3871634235   -0.3681876698   -1.0144038853
 H    0.6915227378   -0.2607099921    0.7138083337
 H   -1.7477411143   -0.2455823663    1.1708030623
 H   -3.4646861181   -2.1408713035   -1.0467855322
 H   -2.0414131242   -2.0353893755   -2.1254124346
 H   -2.0409247487   -2.6033972969    0.8792469469
 H    1.5137073467   -4.1897213404   -0.7314307902