20

 C   -0.2185879652    1.5157746131   -0.0071767831
 C   -0.0104842713   -0.0004140175    0.0054922365
 C   -1.3262439211   -0.7340190036   -0.2291858048
 C    1.1898620038   -0.4321816137   -0.8956389289
 C    2.1156441755   -0.4615457670    0.3600303957
 C    0.8267941704   -0.4641497249    1.2396810828
 C    3.0180687193   -1.6531511574    0.4959945555
 O    4.2044769578   -1.6162934099    0.6998733073
 H    0.7193785729    2.0556081134    0.1603389462
 H   -0.6254377262    1.8458484358   -0.9697277556
 H   -0.9221964638    1.8197102035    0.7761096165
 H   -1.7635242986   -0.4603940619   -1.1966398191
 H   -1.1847533955   -1.8200543463   -0.2213762891
 H   -2.0599763161   -0.4864786793    0.5469673123
 H    1.0463725015   -1.4349517604   -1.3127245528
 H    1.4857403753    0.2416632698   -1.7034797947
 H    2.7085029448    0.4474074792    0.4745416497
 H    0.8358897408    0.1844557058    2.1191344572
 H    0.5584989903   -1.4778920306    1.5565908170
 H    2.4853396356   -2.6307915483    0.3895563713