18

 O    0.0512383662    1.3743588160   -0.3230048565
 C    0.0837549864   -0.0037618764    0.0110279460
 C   -1.3471532645   -0.4954411934    0.0602301697
 C   -2.1388317833   -0.5598999550   -1.2733739038
 C   -2.7176955171   -1.9338584252   -0.8389764622
 O   -2.7207116815   -2.8826077919   -1.8785422159
 C   -1.5850983208   -2.0185697411    0.2405178283
 C   -4.0511042796   -1.8289954794   -0.2257411623
 N   -5.0981978464   -1.7840565119    0.2626898265
 H    0.9555695775    1.6971069141   -0.3754831211
 H    0.6452398336   -0.5855924182   -0.7394278521
 H    0.5682258614   -0.1724919026    0.9870197808
 H   -1.8979663578    0.0810515756    0.8087642252
 H   -2.8466150927    0.2361561948   -1.5018384019
 H   -1.4804962254   -0.7223338528   -2.1310099453
 H   -3.1062588863   -3.7041037151   -1.5523090261
 H   -0.7643508509   -2.6128957229   -0.1718079281
 H   -1.8514176688   -2.3917722846    1.2305615591