20

 C    0.0770230074    1.5979833022   -0.0528547387
 C    0.0119083074    0.0613602594    0.0060103816
 C    0.6866177414   -0.4865334084    1.2436916214
 N    2.0154109497   -0.6270372463    1.1506536939
 C    2.6900272080   -1.0775520485    2.2090322055
 C    2.0824742850   -1.4148559905    3.4119347637
 C    0.7038626431   -1.2675734409    3.5067053030
 C   -0.0280246760   -0.7949085004    2.4182630164
 C   -1.5257240637   -0.6318520092    2.5149763048
 H    1.1182408751    1.9314138993   -0.0258132351
 H   -0.3816892630    1.9734105247   -0.9727788986
 H   -0.4443378069    2.0552097687    0.7950112939
 H   -1.0304006703   -0.2673217306   -0.0462841426
 H    0.5312054284   -0.3508308581   -0.8640936372
 H    3.7663590282   -1.1752359329    2.0854735895
 H    2.6696873653   -1.7811406056    4.2466280422
 H    0.1878717083   -1.5201914102    4.4288959909
 H   -1.8425592776    0.3910138788    2.2854372069
 H   -2.0527705111   -1.2927137585    1.8171237406
 H   -1.8763488987   -0.8698150729    3.5228876280