16

 O    0.0685002749    1.4960114477    0.1010208516
 C    0.0184038920    0.0939290275    0.0349127189
 C    0.7239147604   -0.5038509960    1.2647208477
 O    0.0204970174   -0.1916641172    2.4661604026
 C   -1.3315337418   -0.1952337187    2.3882927595
 N   -2.0735186159   -0.3091620179    1.3729883321
 C   -1.4527401454   -0.4021092155    0.0613703927
 C    0.6896531571   -0.3902104468   -1.2333624957
 O    1.1275937840    0.3798094922   -2.0535034728
 H    0.4862263875    1.7828899598   -0.7266937382
 H    0.8070999885   -1.5951627771    1.1727721492
 H    1.7199151699   -0.0721472602    1.3772975042
 H   -1.7578848932   -0.0686280882    3.3809054757
 H   -2.0264912220    0.2139770603   -0.6376266416
 H   -1.5198784367   -1.4401610558   -0.2919040195
 H    0.7389987433   -1.4886521243   -1.3799964564