19

 C   -0.2592591552    1.5786147617   -0.1008531691
 C   -0.0177888510    0.0739242468   -0.0389284120
 O   -1.1994236004   -0.6523435199   -0.3083938066
 C    1.2598200564   -0.3871986169   -0.8399256204
 C    1.9518573212   -0.5551958107    0.5114723443
 O    3.0985724891   -0.5824129393    0.8767295275
 C    0.6393132173   -0.4567611612    1.2807894055
 C    0.7067044198    0.3254375398    2.5926345999
 O    1.5908866271   -0.3148308734    3.4916548808
 H    0.6470910210    2.1478934615    0.1265229051
 H   -0.5789105964    1.8674728806   -1.1097868070
 H   -1.0419444501    1.8743985740    0.6034547797
 H   -1.5906714516   -0.3067820364   -1.1184132914
 H    1.0834438070   -1.3545419427   -1.3208139800
 H    1.7194560584    0.3011014343   -1.5539031536
 H    0.2481061839   -1.4628314477    1.4724874760
 H    1.0153095870    1.3645712083    2.3984743486
 H   -0.2739538397    0.3606858235    3.0781794364
 H    2.4362298463   -0.4047358724    3.0310708463