21

 C   -0.7898165440    1.5137576023    0.1526952342
 C   -0.0519751811    0.1787527861    0.0480638181
 C   -1.0481520464   -0.9638428507   -0.2208966856
 C    1.0284514459    0.1696598009   -1.0792896767
 C    2.1182691628   -0.7593726072   -0.5719120879
 O    2.9780210323   -0.1458340414    0.4073457160
 C    1.9246401920   -1.0108461907    0.8641259293
 C    0.7365476880   -0.1776363713    1.3610399188
 O    1.1860429143    0.9404726036    2.1002214036
 H   -0.1002961221    2.3254082195    0.3940231049
 H   -1.2940630687    1.7517934049   -0.7905709535
 H   -1.5499442217    1.4831465083    0.9405674985
 H   -1.5778983017   -0.8048843608   -1.1660736841
 H   -0.5412006436   -1.9339776184   -0.2845265460
 H   -1.7952301865   -1.0298274799    0.5773248982
 H    0.6118589585   -0.1775722100   -2.0300641087
 H    1.4479582293    1.1663861926   -1.2531923088
 H    2.6214901118   -1.4616356479   -1.2313138611
 H    2.2541206566   -1.9092043347    1.3785885025
 H    0.0964084408   -0.7535370148    2.0370010577
 H    2.0161468933    1.2106179495    1.6832419504