14

 N    0.0202514303    1.2042083111   -0.0371177106
 C   -0.0754723792   -0.0358977213   -0.2348093026
 O   -1.0925935838   -0.7184373781    0.3571002395
 C   -1.0899458071   -2.1154904574    0.1738822375
 C   -2.4239267432   -2.7776947069    0.5541417797
 O   -2.5599391976   -3.2936233102   -0.8107410052
 C   -1.4161636450   -2.6465324490   -1.2194253121
 N   -0.8711579910   -2.5373500722   -2.3408157423
 H    0.8170449797    1.5756855061   -0.5505530075
 H    0.5687621518   -0.6626341302   -0.8601878349
 H   -0.2034024326   -2.5760747658    0.6232609023
 H   -2.3868638433   -3.5906539113    1.2807069366
 H   -3.2161601670   -2.0652952868    0.7899155426
 H   -1.3984843118   -3.0134425780   -3.0746607730