14

 O    0.0136932019   -0.0545338091    0.0162353130
 C    0.0245777299    1.1518198922    0.1025136867
 C    1.2585833906    1.9531134929    0.0545735036
 C    1.3316886234    3.2953512285    0.1228604304
 C    2.7538203722    3.7462030949   -0.0182538805
 O    3.1491943963    4.8810787355   -0.1138124097
 C    3.5826577935    2.4732357183   -0.0806382901
 N    3.4268494563    1.6676672554    1.1658920196
 C    2.6264334803    1.3445573530   -0.0425866785
 H   -0.9121936017    1.7374378277    0.2137200817
 H    0.5083575500    3.9870034597    0.2527504238
 H    4.5218418816    2.4635425081   -0.6193920971
 H    4.2183197423    1.0260748788    1.2202393019
 H    2.7762110136    0.4043638242   -0.5568650148