22

 C    0.4299902001    1.6045087426    0.4193188472
 C    0.1306376684    0.1186310088    0.1420158112
 C    0.6853088933   -0.7421839308    1.2884805062
 C   -1.4041269958   -0.0861849731   -0.0247015361
 C   -2.1970682195    0.1781922584    1.2335490054
 O   -2.7989753766    1.1988281446    1.4590979319
 N    0.7153267917   -0.4402153176   -1.0965196127
 C    0.7249144612    0.3135428157   -2.3407395988
 C    1.9942895216    0.0259600335   -1.6123751302
 H    1.4912335175    1.7662240917    0.6289755333
 H    0.1378530463    2.2492518353   -0.4148546357
 H   -0.1333522579    1.9448389700    1.2920663351
 H    0.3091827029   -0.4108052954    2.2611794494
 H    0.4213721626   -1.7935470311    1.1453279661
 H    1.7770907089   -0.6699234745    1.3119436214
 H   -1.7728781276    0.5832528059   -0.8076842917
 H   -1.5643823581   -1.1236902675   -0.3386904998
 H   -2.1941685229   -0.6499340647    1.9783587458
 H    0.4531992348   -0.2489955899   -3.2300712412
 H    0.3851319800    1.3467185685   -2.3412797857
 H    2.4853547625    0.8719697304   -1.1375530552
 H    2.6704794866   -0.7515385607   -1.9580212558