16

 C   -0.0404162547    1.4031463181   -0.1016544545
 N   -0.0011286143   -0.0343983163    0.0861253313
 C    0.6506878208   -0.6121334596    1.1149537049
 N    1.2000233897    0.0773635481    2.0637664871
 C    1.7969153323   -0.6663600316    3.0564728226
 C    1.8439970359   -2.0174298173    3.0779355826
 C    1.2382155553   -2.7672235677    2.0084794210
 N    1.2082860367   -4.0283818822    1.8927023279
 O    0.6298169968   -1.9619207509    1.0145041414
 H    0.9157732055    1.7994368433   -0.4639893621
 H   -0.8221620232    1.6398946710   -0.8259268635
 H   -0.2699154037    1.8885241149    0.8484624371
 H   -0.2990041826   -0.6458679697   -0.6549213040
 H    2.2493319459   -0.0829265092    3.8529843391
 H    2.3232591914   -2.5767257008    3.8685494316
 H    0.7169130482   -4.3078305701    1.0440972476