14

 O    1.8946004262    4.1960520128    0.1828127898
 C    1.0640931732    3.3323245036    0.1358358262
 N    1.2703775028    1.9644849512   -0.0039555134
 C    2.4530664529    1.2382161947   -0.1243402188
 N    3.6198890662    1.8776496008   -0.1144930492
 C    4.7081200663    1.1167517886   -0.2339615782
 N    4.7691588266   -0.2072456618   -0.3622545086
 C    3.5828805529   -0.8295426469   -0.3697522825
 C    2.3804442959   -0.1576611180   -0.2536275854
 H   -0.0259999121    3.5295544226    0.2016403142
 H    0.4256744743    1.4122800084   -0.0202912656
 H    5.6571941503    1.6476424206   -0.2248830091
 H    3.6019130606   -1.9119222705   -0.4733020145
 H    1.4335331438   -0.6864720062   -0.2625018348