19

 C    0.6674850254    1.4230853190   -0.0136467757
 O    1.3868639670    0.2066546799   -0.0389466139
 C   -0.0707731878    0.1301396639   -0.0109722676
 C   -0.5915106660   -0.3301918400    1.3007580024
 C   -1.8142177427   -0.7690436705    1.5947374727
 C   -2.9749145910   -0.9249312440    0.6454481575
 C   -2.6639854676   -1.7308102786   -0.6266810364
 C   -1.6693133813   -1.1116517815   -1.5722022122
 C   -0.6189179408   -0.3333603786   -1.3090963892
 H    0.7309492807    1.9961095066    0.9113398183
 H    0.6961643068    2.0148861350   -0.9289358447
 H    0.1475198893   -0.2505237887    2.0941793729
 H   -2.0085916663   -1.0263144729    2.6333012087
 H   -3.8002528780   -1.4156993063    1.1713472015
 H   -3.3494401577    0.0650069493    0.3508297507
 H   -2.3161425002   -2.7338462951   -0.3409739472
 H   -3.6015187197   -1.8899923356   -1.1730442264
 H   -1.8381031618   -1.3471311016   -2.6214226373
 H   -0.0165845381    0.0063611997   -2.1486609739