20

 C   -0.0241974716    1.6601506276    0.1997255418
 C    0.0167666282    0.1412872739    0.0176501845
 C    1.0801765262   -0.4756810223   -0.9403432072
 N    1.6488092132   -1.3587060860    0.1396828205
 C    2.1598431674   -0.4442523080    1.1744710535
 C    0.7048686732   -0.6849183551    1.1180407191
 C   -1.3954564846   -0.3503815447   -0.2460347032
 C   -1.9925171243   -0.4078038256   -1.5846711127
 O   -1.5853561070   -1.5994066754   -0.9057558983
 H    0.9549629847    2.0614347180    0.4723071462
 H   -0.3447921530    2.1541229159   -0.7240667576
 H   -0.7302294022    1.9423371022    0.9896419898
 H    0.6502682836   -1.0968198352   -1.7263135859
 H    1.8095443773    0.2199943135   -1.3692013744
 H    2.7188234466   -0.9572443629    1.9515452062
 H    2.5791140198    0.5146449144    0.8771712976
 H    0.1792487649   -1.2545083088    1.8796599758
 H   -2.0755524355   -0.1935459725    0.5954687678
 H   -3.0669699222   -0.2828826642   -1.7078483349
 H   -1.3920992749   -0.1410929446   -2.4537307585