18

 C   -0.5766033484    1.6729685218   -0.0491759345
 C   -0.0198040851    0.2593962679    0.0240327445
 C    1.2441761144   -0.0741939325   -0.8495947319
 C    1.8627012193   -0.8212208022    0.3591097894
 O    3.2350520723   -0.7032187489    0.6245625708
 C    0.8352280182   -0.1242925812    1.2865249294
 C   -1.0953759099   -0.7765304396   -0.2062215415
 O   -2.2551717713   -0.5332548542   -0.4224937254
 H    0.2161227880    2.4084972787    0.1184854204
 H   -1.0273485612    1.8661808742   -1.0269923352
 H   -1.3560145185    1.8262248595    0.7029515798
 H    1.0998160181   -0.6298410420   -1.7798930225
 H    1.7943367381    0.8453926845   -1.0753546521
 H    1.6741003243   -1.8969249810    0.2977725599
 H    3.4495091849    0.2336974969    0.6891777361
 H    1.2551351468    0.7794374558    1.7406874434
 H    0.3624369533   -0.7200819652    2.0717282837
 H   -0.7373686932   -1.8328118925   -0.1627659340